file 21116246 1646617884                                        
version 2
run IPv4SlowMobility-0-20220306-15:43:42-1867790
attr configname IPv4SlowMobility
attr datetime 20220306-15:43:42
attr experiment IPv4SlowMobility
attr inifile omnetpp.ini
attr iterationvars ""
attr iterationvarsf ""
attr measurement ""
attr network AODVNetwork
attr processid 1867790
attr repetition 0
attr replication #0
attr resultdir results
attr runnumber 0
attr seedset 0
param **.aodv.activeRouteTimeout 3s
param **.host[2..20].mobility.typename "\"MassMobility\""
param **.host[0].mobility.typename "\"StationaryMobility\""
param **.host[1].mobility.typename "\"StationaryMobility\""
param **.host[*].mobility.changeInterval "normal(5s, 0.1s)"
param **.host[*].mobility.angleDelta "normal(0deg, 30deg)"
param **.host[*].mobility.speed "normal(2mps, 0.01mps)"
param **.host[1].mobility.initialX 600m
param **.host[1].mobility.initialY 600m
param *.host[*].wlan[*].radio.transmitter.communicationRange 250m
param *.host[0].app[0].destAddr "\"host[1](ipv4)\""
param **.wlan[*].typename "\"AckingWirelessInterface\""
param **.wlan[*].bitrate 2Mbps
param **.wlan[*].mac.headerLength 23B
param **.wlan[*].radio.typename "\"UnitDiskRadio\""
param **.wlan[*].radio.transmitter.headerLength 96b
param **.wlan[*].radio.transmitter.communicationRange 250m
param **.wlan[*].radio.transmitter.interferenceRange 0m
param **.wlan[*].radio.transmitter.detectionRange 0m
param **.wlan[*].radio.receiver.ignoreInterference true
param *.numHosts 20
param **.host[*].mobility.typename "\"StationaryMobility\""
param **.mobility.constraintAreaMinZ 0m
param **.mobility.constraintAreaMaxZ 0m
param **.mobility.constraintAreaMinX 0m
param **.mobility.constraintAreaMinY 0m
param **.mobility.constraintAreaMaxX 600m
param **.mobility.constraintAreaMaxY 600m
param *.host[0].numApps 1
param *.host[0].app[0].typename "\"PingApp\""
param *.host[0].app[0].startTime uniform(1s,5s)
param *.host[0].app[0].printPing true
param **.wlan[*].bitrate 2Mbps
param **.hasStatus true

vector 0 AODVNetwork.host[0].wlan[0].radio radioMode:vector ETV
attr interpolationmode sample-hold
attr source radioModeChanged
attr title "Radio mode, vector"
vector 1 AODVNetwork.host[1].wlan[0].radio radioMode:vector ETV
attr interpolationmode sample-hold
attr source radioModeChanged
attr title "Radio mode, vector"
vector 2 AODVNetwork.host[2].wlan[0].radio radioMode:vector ETV
attr interpolationmode sample-hold
attr source radioModeChanged
attr title "Radio mode, vector"
vector 3 AODVNetwork.host[3].wlan[0].radio radioMode:vector ETV
attr interpolationmode sample-hold
attr source radioModeChanged
attr title "Radio mode, vector"
vector 4 AODVNetwork.host[4].wlan[0].radio radioMode:vector ETV
attr interpolationmode sample-hold
attr source radioModeChanged
attr title "Radio mode, vector"
vector 5 AODVNetwork.host[5].wlan[0].radio radioMode:vector ETV
attr interpolationmode sample-hold
attr source radioModeChanged
attr title "Radio mode, vector"
vector 6 AODVNetwork.host[6].wlan[0].radio radioMode:vector ETV
attr interpolationmode sample-hold
attr source radioModeChanged
attr title "Radio mode, vector"
vector 7 AODVNetwork.host[7].wlan[0].radio radioMode:vector ETV
attr interpolationmode sample-hold
attr source radioModeChanged
attr title "Radio mode, vector"
vector 8 AODVNetwork.host[8].wlan[0].radio radioMode:vector ETV
attr interpolationmode sample-hold
attr source radioModeChanged
attr title "Radio mode, vector"
vector 9 AODVNetwork.host[9].wlan[0].radio radioMode:vector ETV
attr interpolationmode sample-hold
attr source radioModeChanged
attr title "Radio mode, vector"
vector 10 AODVNetwork.host[10].wlan[0].radio radioMode:vector ETV
attr interpolationmode sample-hold
attr source radioModeChanged
attr title "Radio mode, vector"
vector 11 AODVNetwork.host[11].wlan[0].radio radioMode:vector ETV
attr interpolationmode sample-hold
attr source radioModeChanged
attr title "Radio mode, vector"
vector 12 AODVNetwork.host[12].wlan[0].radio radioMode:vector ETV
attr interpolationmode sample-hold
attr source radioModeChanged
attr title "Radio mode, vector"
vector 13 AODVNetwork.host[13].wlan[0].radio radioMode:vector ETV
attr interpolationmode sample-hold
attr source radioModeChanged
attr title "Radio mode, vector"
vector 14 AODVNetwork.host[14].wlan[0].radio radioMode:vector ETV
attr interpolationmode sample-hold
attr source radioModeChanged
attr title "Radio mode, vector"
vector 15 AODVNetwork.host[15].wlan[0].radio radioMode:vector ETV
attr interpolationmode sample-hold
attr source radioModeChanged
attr title "Radio mode, vector"
vector 16 AODVNetwork.host[16].wlan[0].radio radioMode:vector ETV
attr interpolationmode sample-hold
attr source radioModeChanged
attr title "Radio mode, vector"
vector 17 AODVNetwork.host[17].wlan[0].radio radioMode:vector ETV
attr interpolationmode sample-hold
attr source radioModeChanged
attr title "Radio mode, vector"
vector 18 AODVNetwork.host[18].wlan[0].radio radioMode:vector ETV
attr interpolationmode sample-hold
attr source radioModeChanged
attr title "Radio mode, vector"
vector 19 AODVNetwork.host[19].wlan[0].radio radioMode:vector ETV
attr interpolationmode sample-hold
attr source radioModeChanged
attr title "Radio mode, vector"
vector 20 AODVNetwork.host[0].wlan[0].radio receptionState:vector ETV
attr interpolationmode sample-hold
attr source receptionStateChanged
attr title "Radio reception state, vector"
vector 21 AODVNetwork.host[0].wlan[0].radio transmissionState:vector ETV
attr interpolationmode sample-hold
attr source transmissionStateChanged
attr title "Radio transmission state, vector"
vector 22 AODVNetwork.host[1].wlan[0].radio receptionState:vector ETV
attr interpolationmode sample-hold
attr source receptionStateChanged
attr title "Radio reception state, vector"
vector 23 AODVNetwork.host[1].wlan[0].radio transmissionState:vector ETV
attr interpolationmode sample-hold
attr source transmissionStateChanged
attr title "Radio transmission state, vector"
vector 24 AODVNetwork.host[2].wlan[0].radio receptionState:vector ETV
attr interpolationmode sample-hold
attr source receptionStateChanged
attr title "Radio reception state, vector"
vector 25 AODVNetwork.host[2].wlan[0].radio transmissionState:vector ETV
attr interpolationmode sample-hold
attr source transmissionStateChanged
attr title "Radio transmission state, vector"
vector 26 AODVNetwork.host[3].wlan[0].radio receptionState:vector ETV
attr interpolationmode sample-hold
attr source receptionStateChanged
attr title "Radio reception state, vector"
vector 27 AODVNetwork.host[3].wlan[0].radio transmissionState:vector ETV
attr interpolationmode sample-hold
attr source transmissionStateChanged
attr title "Radio transmission state, vector"
vector 28 AODVNetwork.host[4].wlan[0].radio receptionState:vector ETV
attr interpolationmode sample-hold
attr source receptionStateChanged
attr title "Radio reception state, vector"
vector 29 AODVNetwork.host[4].wlan[0].radio transmissionState:vector ETV
attr interpolationmode sample-hold
attr source transmissionStateChanged
attr title "Radio transmission state, vector"
vector 30 AODVNetwork.host[5].wlan[0].radio receptionState:vector ETV
attr interpolationmode sample-hold
attr source receptionStateChanged
attr title "Radio reception state, vector"
vector 31 AODVNetwork.host[5].wlan[0].radio transmissionState:vector ETV
attr interpolationmode sample-hold
attr source transmissionStateChanged
attr title "Radio transmission state, vector"
vector 32 AODVNetwork.host[6].wlan[0].radio receptionState:vector ETV
attr interpolationmode sample-hold
attr source receptionStateChanged
attr title "Radio reception state, vector"
vector 33 AODVNetwork.host[6].wlan[0].radio transmissionState:vector ETV
attr interpolationmode sample-hold
attr source transmissionStateChanged
attr title "Radio transmission state, vector"
vector 34 AODVNetwork.host[7].wlan[0].radio receptionState:vector ETV
attr interpolationmode sample-hold
attr source receptionStateChanged
attr title "Radio reception state, vector"
vector 35 AODVNetwork.host[7].wlan[0].radio transmissionState:vector ETV
attr interpolationmode sample-hold
attr source transmissionStateChanged
attr title "Radio transmission state, vector"
vector 36 AODVNetwork.host[8].wlan[0].radio receptionState:vector ETV
attr interpolationmode sample-hold
attr source receptionStateChanged
attr title "Radio reception state, vector"
vector 37 AODVNetwork.host[8].wlan[0].radio transmissionState:vector ETV
attr interpolationmode sample-hold
attr source transmissionStateChanged
attr title "Radio transmission state, vector"
vector 38 AODVNetwork.host[9].wlan[0].radio receptionState:vector ETV
attr interpolationmode sample-hold
attr source receptionStateChanged
attr title "Radio reception state, vector"
vector 39 AODVNetwork.host[9].wlan[0].radio transmissionState:vector ETV
attr interpolationmode sample-hold
attr source transmissionStateChanged
attr title "Radio transmission state, vector"
vector 40 AODVNetwork.host[10].wlan[0].radio receptionState:vector ETV
attr interpolationmode sample-hold
attr source receptionStateChanged
attr title "Radio reception state, vector"
vector 41 AODVNetwork.host[10].wlan[0].radio transmissionState:vector ETV
attr interpolationmode sample-hold
attr source transmissionStateChanged
attr title "Radio transmission state, vector"
vector 42 AODVNetwork.host[11].wlan[0].radio receptionState:vector ETV
attr interpolationmode sample-hold
attr source receptionStateChanged
attr title "Radio reception state, vector"
vector 43 AODVNetwork.host[11].wlan[0].radio transmissionState:vector ETV
attr interpolationmode sample-hold
attr source transmissionStateChanged
attr title "Radio transmission state, vector"
vector 44 AODVNetwork.host[12].wlan[0].radio receptionState:vector ETV
attr interpolationmode sample-hold
attr source receptionStateChanged
attr title "Radio reception state, vector"
vector 45 AODVNetwork.host[12].wlan[0].radio transmissionState:vector ETV
attr interpolationmode sample-hold
attr source transmissionStateChanged
attr title "Radio transmission state, vector"
vector 46 AODVNetwork.host[13].wlan[0].radio receptionState:vector ETV
attr interpolationmode sample-hold
attr source receptionStateChanged
attr title "Radio reception state, vector"
vector 47 AODVNetwork.host[13].wlan[0].radio transmissionState:vector ETV
attr interpolationmode sample-hold
attr source transmissionStateChanged
attr title "Radio transmission state, vector"
vector 48 AODVNetwork.host[14].wlan[0].radio receptionState:vector ETV
attr interpolationmode sample-hold
attr source receptionStateChanged
attr title "Radio reception state, vector"
vector 49 AODVNetwork.host[14].wlan[0].radio transmissionState:vector ETV
attr interpolationmode sample-hold
attr source transmissionStateChanged
attr title "Radio transmission state, vector"
vector 50 AODVNetwork.host[15].wlan[0].radio receptionState:vector ETV
attr interpolationmode sample-hold
attr source receptionStateChanged
attr title "Radio reception state, vector"
vector 51 AODVNetwork.host[15].wlan[0].radio transmissionState:vector ETV
attr interpolationmode sample-hold
attr source transmissionStateChanged
attr title "Radio transmission state, vector"
vector 52 AODVNetwork.host[16].wlan[0].radio receptionState:vector ETV
attr interpolationmode sample-hold
attr source receptionStateChanged
attr title "Radio reception state, vector"
vector 53 AODVNetwork.host[16].wlan[0].radio transmissionState:vector ETV
attr interpolationmode sample-hold
attr source transmissionStateChanged
attr title "Radio transmission state, vector"
vector 54 AODVNetwork.host[17].wlan[0].radio receptionState:vector ETV
attr interpolationmode sample-hold
attr source receptionStateChanged
attr title "Radio reception state, vector"
vector 55 AODVNetwork.host[17].wlan[0].radio transmissionState:vector ETV
attr interpolationmode sample-hold
attr source transmissionStateChanged
attr title "Radio transmission state, vector"
vector 56 AODVNetwork.host[18].wlan[0].radio receptionState:vector ETV
attr interpolationmode sample-hold
attr source receptionStateChanged
attr title "Radio reception state, vector"
vector 57 AODVNetwork.host[18].wlan[0].radio transmissionState:vector ETV
attr interpolationmode sample-hold
attr source transmissionStateChanged
attr title "Radio transmission state, vector"
vector 58 AODVNetwork.host[19].wlan[0].radio receptionState:vector ETV
attr interpolationmode sample-hold
attr source receptionStateChanged
attr title "Radio reception state, vector"
vector 59 AODVNetwork.host[19].wlan[0].radio transmissionState:vector ETV
attr interpolationmode sample-hold
attr source transmissionStateChanged
attr title "Radio transmission state, vector"
0	12666 24 0 0 0 0 3 0 4 4 16
1	12690 24 0 0 0 0 3 0 4 4 16
2	12714 24 0 0 0 0 3 0 4 4 16
3	12738 24 0 0 0 0 3 0 4 4 16
4	12762 24 0 0 0 0 3 0 4 4 16
5	12786 24 0 0 0 0 3 0 4 4 16
6	12810 24 0 0 0 0 3 0 4 4 16
7	12834 24 0 0 0 0 3 0 4 4 16
8	12858 24 0 0 0 0 3 0 4 4 16
9	12882 24 0 0 0 0 3 0 4 4 16
10	12906 27 0 0 0 0 3 0 4 4 16
11	12933 27 0 0 0 0 3 0 4 4 16
12	12960 27 0 0 0 0 3 0 4 4 16
13	12987 27 0 0 0 0 3 0 4 4 16
14	13014 27 0 0 0 0 3 0 4 4 16
15	13041 27 0 0 0 0 3 0 4 4 16
16	13068 27 0 0 0 0 3 0 4 4 16
17	13095 27 0 0 0 0 3 0 4 4 16
18	13122 27 0 0 0 0 3 0 4 4 16
19	13149 27 0 0 0 0 3 0 4 4 16
20	13176 9 0 0 0 0 1 1 1 1 1
21	13185 9 0 0 0 0 1 1 1 1 1
22	13194 9 0 0 0 0 1 1 1 1 1
23	13203 9 0 0 0 0 1 1 1 1 1
24	13212 9 0 0 0 0 1 1 1 1 1
25	13221 9 0 0 0 0 1 1 1 1 1
26	13230 9 0 0 0 0 1 1 1 1 1
27	13239 9 0 0 0 0 1 1 1 1 1
28	13248 9 0 0 0 0 1 1 1 1 1
29	13257 9 0 0 0 0 1 1 1 1 1
30	13266 9 0 0 0 0 1 1 1 1 1
31	13275 9 0 0 0 0 1 1 1 1 1
32	13284 9 0 0 0 0 1 1 1 1 1
33	13293 9 0 0 0 0 1 1 1 1 1
34	13302 9 0 0 0 0 1 1 1 1 1
35	13311 9 0 0 0 0 1 1 1 1 1
36	13320 9 0 0 0 0 1 1 1 1 1
37	13329 9 0 0 0 0 1 1 1 1 1
38	13338 9 0 0 0 0 1 1 1 1 1
39	13347 9 0 0 0 0 1 1 1 1 1
40	13356 9 0 0 0 0 1 1 1 1 1
41	13365 9 0 0 0 0 1 1 1 1 1
42	13374 9 0 0 0 0 1 1 1 1 1
43	13383 9 0 0 0 0 1 1 1 1 1
44	13392 9 0 0 0 0 1 1 1 1 1
45	13401 9 0 0 0 0 1 1 1 1 1
46	13410 9 0 0 0 0 1 1 1 1 1
47	13419 9 0 0 0 0 1 1 1 1 1
48	13428 9 0 0 0 0 1 1 1 1 1
49	13437 9 0 0 0 0 1 1 1 1 1
50	13446 9 0 0 0 0 1 1 1 1 1
51	13455 9 0 0 0 0 1 1 1 1 1
52	13464 9 0 0 0 0 1 1 1 1 1
53	13473 9 0 0 0 0 1 1 1 1 1
54	13482 9 0 0 0 0 1 1 1 1 1
55	13491 9 0 0 0 0 1 1 1 1 1
56	13500 9 0 0 0 0 1 1 1 1 1
57	13509 9 0 0 0 0 1 1 1 1 1
58	13518 9 0 0 0 0 1 1 1 1 1
59	13527 9 0 0 0 0 1 1 1 1 1
vector 60 AODVNetwork.host[0].app[0] pingTxSeq:vector ETV
attr interpolationmode none
attr title "ping tx seq, vector"
vector 61 AODVNetwork.host[0].udp packetSent:vector(packetBytes) ETV
attr interpolationmode none
attr source packetSent
attr title "packets sent, vector(packetBytes)"
vector 62 AODVNetwork.host[0].wlan[0].mac rcvdPkFromHl:vector(packetBytes) ETV
attr interpolationmode none
attr source packetReceivedFromUpper
attr title "packets received from higher layer, vector(packetBytes)"
vector 63 AODVNetwork.host[0].wlan[0].mac.queue packetPushed:vector(packetBytes) ETV
attr interpolationmode none
attr title "packet pushed, vector(packetBytes)"
vector 64 AODVNetwork.host[0].wlan[0].mac.queue queueLength:vector ETV
attr interpolationmode sample-hold
attr source "count(packetPushed) - count(packetPopped) - count(packetRemoved) - count(packetDropped)"
attr title "queue length, vector"
vector 65 AODVNetwork.host[0].wlan[0].mac.queue packetPopped:vector(packetBytes) ETV
attr interpolationmode none
attr title "packet popped, vector(packetBytes)"
vector 66 AODVNetwork.host[0].wlan[0].mac.queue queueingTime:vector ETV
attr interpolationmode none
attr source queueingTime(packetPopped)
attr title "queueing times, vector"
attr unit s
vector 67 AODVNetwork.host[0].wlan[0].mac sentDownPk:vector(packetBytes) ETV
attr interpolationmode none
attr source packetSentToLower
attr title "packets sent to lower layer, vector(packetBytes)"
vector 68 AODVNetwork.host[4].wlan[0].mac rcvdPkFromLl:vector(packetBytes) ETV
attr interpolationmode none
attr source packetReceivedFromLower
attr title "packets received from lower layer, vector(packetBytes)"
vector 69 AODVNetwork.host[4].wlan[0].mac passedUpPk:vector(packetBytes) ETV
attr interpolationmode none
attr source packetSentToUpper
attr title "packets passed to higher layer, vector(packetBytes)"
vector 70 AODVNetwork.host[4].udp packetReceived:vector(packetBytes) ETV
attr interpolationmode none
attr source packetReceived
attr title "packets received, vector(packetBytes)"
vector 71 AODVNetwork.host[4].udp passedUpPk:vector(count) ETV
attr interpolationmode none
attr source packetSentToUpper
attr title "packets passed up, vector(count)"
vector 72 AODVNetwork.host[15].wlan[0].mac rcvdPkFromLl:vector(packetBytes) ETV
attr interpolationmode none
attr source packetReceivedFromLower
attr title "packets received from lower layer, vector(packetBytes)"
vector 73 AODVNetwork.host[15].wlan[0].mac passedUpPk:vector(packetBytes) ETV
attr interpolationmode none
attr source packetSentToUpper
attr title "packets passed to higher layer, vector(packetBytes)"
vector 74 AODVNetwork.host[15].udp packetReceived:vector(packetBytes) ETV
attr interpolationmode none
attr source packetReceived
attr title "packets received, vector(packetBytes)"
vector 75 AODVNetwork.host[15].udp passedUpPk:vector(count) ETV
attr interpolationmode none
attr source packetSentToUpper
attr title "packets passed up, vector(count)"
vector 76 AODVNetwork.host[4].udp packetSent:vector(packetBytes) ETV
attr interpolationmode none
attr source packetSent
attr title "packets sent, vector(packetBytes)"
vector 77 AODVNetwork.host[4].wlan[0].mac rcvdPkFromHl:vector(packetBytes) ETV
attr interpolationmode none
attr source packetReceivedFromUpper
attr title "packets received from higher layer, vector(packetBytes)"
vector 78 AODVNetwork.host[4].wlan[0].mac.queue packetPushed:vector(packetBytes) ETV
attr interpolationmode none
attr title "packet pushed, vector(packetBytes)"
vector 79 AODVNetwork.host[4].wlan[0].mac.queue queueLength:vector ETV
attr interpolationmode sample-hold
attr source "count(packetPushed) - count(packetPopped) - count(packetRemoved) - count(packetDropped)"
attr title "queue length, vector"
vector 80 AODVNetwork.host[4].wlan[0].mac.queue packetPopped:vector(packetBytes) ETV
attr interpolationmode none
attr title "packet popped, vector(packetBytes)"
vector 81 AODVNetwork.host[4].wlan[0].mac.queue queueingTime:vector ETV
attr interpolationmode none
attr source queueingTime(packetPopped)
attr title "queueing times, vector"
attr unit s
vector 82 AODVNetwork.host[4].wlan[0].mac sentDownPk:vector(packetBytes) ETV
attr interpolationmode none
attr source packetSentToLower
attr title "packets sent to lower layer, vector(packetBytes)"
vector 83 AODVNetwork.host[0].wlan[0].mac rcvdPkFromLl:vector(packetBytes) ETV
attr interpolationmode none
attr source packetReceivedFromLower
attr title "packets received from lower layer, vector(packetBytes)"
vector 84 AODVNetwork.host[0].wlan[0].mac passedUpPk:vector(packetBytes) ETV
attr interpolationmode none
attr source packetSentToUpper
attr title "packets passed to higher layer, vector(packetBytes)"
vector 85 AODVNetwork.host[0].udp packetReceived:vector(packetBytes) ETV
attr interpolationmode none
attr source packetReceived
attr title "packets received, vector(packetBytes)"
vector 86 AODVNetwork.host[0].udp passedUpPk:vector(count) ETV
attr interpolationmode none
attr source packetSentToUpper
attr title "packets passed up, vector(count)"
vector 87 AODVNetwork.host[15].udp packetSent:vector(packetBytes) ETV
attr interpolationmode none
attr source packetSent
attr title "packets sent, vector(packetBytes)"
vector 88 AODVNetwork.host[15].wlan[0].mac rcvdPkFromHl:vector(packetBytes) ETV
attr interpolationmode none
attr source packetReceivedFromUpper
attr title "packets received from higher layer, vector(packetBytes)"
vector 89 AODVNetwork.host[15].wlan[0].mac.queue packetPushed:vector(packetBytes) ETV
attr interpolationmode none
attr title "packet pushed, vector(packetBytes)"
vector 90 AODVNetwork.host[15].wlan[0].mac.queue queueLength:vector ETV
attr interpolationmode sample-hold
attr source "count(packetPushed) - count(packetPopped) - count(packetRemoved) - count(packetDropped)"
attr title "queue length, vector"
vector 91 AODVNetwork.host[15].wlan[0].mac.queue packetPopped:vector(packetBytes) ETV
attr interpolationmode none
attr title "packet popped, vector(packetBytes)"
vector 92 AODVNetwork.host[15].wlan[0].mac.queue queueingTime:vector ETV
attr interpolationmode none
attr source queueingTime(packetPopped)
attr title "queueing times, vector"
attr unit s
vector 93 AODVNetwork.host[15].wlan[0].mac sentDownPk:vector(packetBytes) ETV
attr interpolationmode none
attr source packetSentToLower
attr title "packets sent to lower layer, vector(packetBytes)"
vector 94 AODVNetwork.host[10].wlan[0].mac rcvdPkFromLl:vector(packetBytes) ETV
attr interpolationmode none
attr source packetReceivedFromLower
attr title "packets received from lower layer, vector(packetBytes)"
vector 95 AODVNetwork.host[10].wlan[0].mac passedUpPk:vector(packetBytes) ETV
attr interpolationmode none
attr source packetSentToUpper
attr title "packets passed to higher layer, vector(packetBytes)"
vector 96 AODVNetwork.host[10].udp packetReceived:vector(packetBytes) ETV
attr interpolationmode none
attr source packetReceived
attr title "packets received, vector(packetBytes)"
vector 97 AODVNetwork.host[10].udp passedUpPk:vector(count) ETV
attr interpolationmode none
attr source packetSentToUpper
attr title "packets passed up, vector(count)"
vector 98 AODVNetwork.host[19].wlan[0].mac rcvdPkFromLl:vector(packetBytes) ETV
attr interpolationmode none
attr source packetReceivedFromLower
attr title "packets received from lower layer, vector(packetBytes)"
vector 99 AODVNetwork.host[19].wlan[0].mac passedUpPk:vector(packetBytes) ETV
attr interpolationmode none
attr source packetSentToUpper
attr title "packets passed to higher layer, vector(packetBytes)"
vector 100 AODVNetwork.host[19].udp packetReceived:vector(packetBytes) ETV
attr interpolationmode none
attr source packetReceived
attr title "packets received, vector(packetBytes)"
vector 101 AODVNetwork.host[19].udp passedUpPk:vector(count) ETV
attr interpolationmode none
attr source packetSentToUpper
attr title "packets passed up, vector(count)"
vector 102 AODVNetwork.host[10].udp packetSent:vector(packetBytes) ETV
attr interpolationmode none
attr source packetSent
attr title "packets sent, vector(packetBytes)"
vector 103 AODVNetwork.host[10].wlan[0].mac rcvdPkFromHl:vector(packetBytes) ETV
attr interpolationmode none
attr source packetReceivedFromUpper
attr title "packets received from higher layer, vector(packetBytes)"
vector 104 AODVNetwork.host[10].wlan[0].mac.queue packetPushed:vector(packetBytes) ETV
attr interpolationmode none
attr title "packet pushed, vector(packetBytes)"
vector 105 AODVNetwork.host[10].wlan[0].mac.queue queueLength:vector ETV
attr interpolationmode sample-hold
attr source "count(packetPushed) - count(packetPopped) - count(packetRemoved) - count(packetDropped)"
attr title "queue length, vector"
vector 106 AODVNetwork.host[10].wlan[0].mac.queue packetPopped:vector(packetBytes) ETV
attr interpolationmode none
attr title "packet popped, vector(packetBytes)"
vector 107 AODVNetwork.host[10].wlan[0].mac.queue queueingTime:vector ETV
attr interpolationmode none
attr source queueingTime(packetPopped)
attr title "queueing times, vector"
attr unit s
vector 108 AODVNetwork.host[10].wlan[0].mac sentDownPk:vector(packetBytes) ETV
attr interpolationmode none
attr source packetSentToLower
attr title "packets sent to lower layer, vector(packetBytes)"
vector 109 AODVNetwork.host[14].wlan[0].mac rcvdPkFromLl:vector(packetBytes) ETV
attr interpolationmode none
attr source packetReceivedFromLower
attr title "packets received from lower layer, vector(packetBytes)"
vector 110 AODVNetwork.host[14].wlan[0].mac passedUpPk:vector(packetBytes) ETV
attr interpolationmode none
attr source packetSentToUpper
attr title "packets passed to higher layer, vector(packetBytes)"
vector 111 AODVNetwork.host[14].udp packetReceived:vector(packetBytes) ETV
attr interpolationmode none
attr source packetReceived
attr title "packets received, vector(packetBytes)"
vector 112 AODVNetwork.host[14].udp passedUpPk:vector(count) ETV
attr interpolationmode none
attr source packetSentToUpper
attr title "packets passed up, vector(count)"
vector 113 AODVNetwork.host[12].wlan[0].mac rcvdPkFromLl:vector(packetBytes) ETV
attr interpolationmode none
attr source packetReceivedFromLower
attr title "packets received from lower layer, vector(packetBytes)"
vector 114 AODVNetwork.host[12].wlan[0].mac passedUpPk:vector(packetBytes) ETV
attr interpolationmode none
attr source packetSentToUpper
attr title "packets passed to higher layer, vector(packetBytes)"
vector 115 AODVNetwork.host[12].udp packetReceived:vector(packetBytes) ETV
attr interpolationmode none
attr source packetReceived
attr title "packets received, vector(packetBytes)"
vector 116 AODVNetwork.host[12].udp passedUpPk:vector(count) ETV
attr interpolationmode none
attr source packetSentToUpper
attr title "packets passed up, vector(count)"
vector 117 AODVNetwork.host[11].wlan[0].mac rcvdPkFromLl:vector(packetBytes) ETV
attr interpolationmode none
attr source packetReceivedFromLower
attr title "packets received from lower layer, vector(packetBytes)"
vector 118 AODVNetwork.host[11].wlan[0].mac passedUpPk:vector(packetBytes) ETV
attr interpolationmode none
attr source packetSentToUpper
attr title "packets passed to higher layer, vector(packetBytes)"
vector 119 AODVNetwork.host[11].udp packetReceived:vector(packetBytes) ETV
attr interpolationmode none
attr source packetReceived
attr title "packets received, vector(packetBytes)"
vector 120 AODVNetwork.host[11].udp passedUpPk:vector(count) ETV
attr interpolationmode none
attr source packetSentToUpper
attr title "packets passed up, vector(count)"
vector 121 AODVNetwork.host[18].wlan[0].mac rcvdPkFromLl:vector(packetBytes) ETV
attr interpolationmode none
attr source packetReceivedFromLower
attr title "packets received from lower layer, vector(packetBytes)"
vector 122 AODVNetwork.host[18].wlan[0].mac passedUpPk:vector(packetBytes) ETV
attr interpolationmode none
attr source packetSentToUpper
attr title "packets passed to higher layer, vector(packetBytes)"
vector 123 AODVNetwork.host[18].udp packetReceived:vector(packetBytes) ETV
attr interpolationmode none
attr source packetReceived
attr title "packets received, vector(packetBytes)"
vector 124 AODVNetwork.host[18].udp passedUpPk:vector(count) ETV
attr interpolationmode none
attr source packetSentToUpper
attr title "packets passed up, vector(count)"
vector 125 AODVNetwork.host[3].wlan[0].mac rcvdPkFromLl:vector(packetBytes) ETV
attr interpolationmode none
attr source packetReceivedFromLower
attr title "packets received from lower layer, vector(packetBytes)"
vector 126 AODVNetwork.host[3].wlan[0].mac passedUpPk:vector(packetBytes) ETV
attr interpolationmode none
attr source packetSentToUpper
attr title "packets passed to higher layer, vector(packetBytes)"
vector 127 AODVNetwork.host[3].udp packetReceived:vector(packetBytes) ETV
attr interpolationmode none
attr source packetReceived
attr title "packets received, vector(packetBytes)"
vector 128 AODVNetwork.host[3].udp passedUpPk:vector(count) ETV
attr interpolationmode none
attr source packetSentToUpper
attr title "packets passed up, vector(count)"
vector 129 AODVNetwork.host[3].udp packetSent:vector(packetBytes) ETV
attr interpolationmode none
attr source packetSent
attr title "packets sent, vector(packetBytes)"
vector 130 AODVNetwork.host[3].wlan[0].mac rcvdPkFromHl:vector(packetBytes) ETV
attr interpolationmode none
attr source packetReceivedFromUpper
attr title "packets received from higher layer, vector(packetBytes)"
vector 131 AODVNetwork.host[3].wlan[0].mac.queue packetPushed:vector(packetBytes) ETV
attr interpolationmode none
attr title "packet pushed, vector(packetBytes)"
vector 132 AODVNetwork.host[3].wlan[0].mac.queue queueLength:vector ETV
attr interpolationmode sample-hold
attr source "count(packetPushed) - count(packetPopped) - count(packetRemoved) - count(packetDropped)"
attr title "queue length, vector"
vector 133 AODVNetwork.host[3].wlan[0].mac.queue packetPopped:vector(packetBytes) ETV
attr interpolationmode none
attr title "packet popped, vector(packetBytes)"
vector 134 AODVNetwork.host[3].wlan[0].mac.queue queueingTime:vector ETV
attr interpolationmode none
attr source queueingTime(packetPopped)
attr title "queueing times, vector"
attr unit s
vector 135 AODVNetwork.host[3].wlan[0].mac sentDownPk:vector(packetBytes) ETV
attr interpolationmode none
attr source packetSentToLower
attr title "packets sent to lower layer, vector(packetBytes)"
vector 136 AODVNetwork.host[17].wlan[0].mac rcvdPkFromLl:vector(packetBytes) ETV
attr interpolationmode none
attr source packetReceivedFromLower
attr title "packets received from lower layer, vector(packetBytes)"
vector 137 AODVNetwork.host[17].wlan[0].mac passedUpPk:vector(packetBytes) ETV
attr interpolationmode none
attr source packetSentToUpper
attr title "packets passed to higher layer, vector(packetBytes)"
vector 138 AODVNetwork.host[17].udp packetReceived:vector(packetBytes) ETV
attr interpolationmode none
attr source packetReceived
attr title "packets received, vector(packetBytes)"
vector 139 AODVNetwork.host[17].udp passedUpPk:vector(count) ETV
attr interpolationmode none
attr source packetSentToUpper
attr title "packets passed up, vector(count)"
vector 140 AODVNetwork.host[1].wlan[0].mac rcvdPkFromLl:vector(packetBytes) ETV
attr interpolationmode none
attr source packetReceivedFromLower
attr title "packets received from lower layer, vector(packetBytes)"
vector 141 AODVNetwork.host[1].wlan[0].mac passedUpPk:vector(packetBytes) ETV
attr interpolationmode none
attr source packetSentToUpper
attr title "packets passed to higher layer, vector(packetBytes)"
vector 142 AODVNetwork.host[1].udp packetReceived:vector(packetBytes) ETV
attr interpolationmode none
attr source packetReceived
attr title "packets received, vector(packetBytes)"
vector 143 AODVNetwork.host[1].udp passedUpPk:vector(count) ETV
attr interpolationmode none
attr source packetSentToUpper
attr title "packets passed up, vector(count)"
vector 144 AODVNetwork.host[1].udp packetSent:vector(packetBytes) ETV
attr interpolationmode none
attr source packetSent
attr title "packets sent, vector(packetBytes)"
vector 145 AODVNetwork.host[1].ipv4.arp arpRequestSent:vector(packetBytes) ETV
attr source arpRequestSent
attr title "ARP request sent, vector(packetBytes)"
vector 146 AODVNetwork.host[1].wlan[0].mac rcvdPkFromHl:vector(packetBytes) ETV
attr interpolationmode none
attr source packetReceivedFromUpper
attr title "packets received from higher layer, vector(packetBytes)"
vector 147 AODVNetwork.host[1].wlan[0].mac.queue packetPushed:vector(packetBytes) ETV
attr interpolationmode none
attr title "packet pushed, vector(packetBytes)"
vector 148 AODVNetwork.host[1].wlan[0].mac.queue queueLength:vector ETV
attr interpolationmode sample-hold
attr source "count(packetPushed) - count(packetPopped) - count(packetRemoved) - count(packetDropped)"
attr title "queue length, vector"
vector 149 AODVNetwork.host[1].wlan[0].mac.queue packetPopped:vector(packetBytes) ETV
attr interpolationmode none
attr title "packet popped, vector(packetBytes)"
vector 150 AODVNetwork.host[1].wlan[0].mac.queue queueingTime:vector ETV
attr interpolationmode none
attr source queueingTime(packetPopped)
attr title "queueing times, vector"
attr unit s
vector 151 AODVNetwork.host[1].wlan[0].mac sentDownPk:vector(packetBytes) ETV
attr interpolationmode none
attr source packetSentToLower
attr title "packets sent to lower layer, vector(packetBytes)"
vector 152 AODVNetwork.host[13].wlan[0].mac rcvdPkFromLl:vector(packetBytes) ETV
attr interpolationmode none
attr source packetReceivedFromLower
attr title "packets received from lower layer, vector(packetBytes)"
vector 153 AODVNetwork.host[13].wlan[0].mac passedUpPk:vector(packetBytes) ETV
attr interpolationmode none
attr source packetSentToUpper
attr title "packets passed to higher layer, vector(packetBytes)"
vector 154 AODVNetwork.host[13].udp packetReceived:vector(packetBytes) ETV
attr interpolationmode none
attr source packetReceived
attr title "packets received, vector(packetBytes)"
vector 155 AODVNetwork.host[13].udp passedUpPk:vector(count) ETV
attr interpolationmode none
attr source packetSentToUpper
attr title "packets passed up, vector(count)"
vector 156 AODVNetwork.host[11].udp packetSent:vector(packetBytes) ETV
attr interpolationmode none
attr source packetSent
attr title "packets sent, vector(packetBytes)"
vector 157 AODVNetwork.host[11].wlan[0].mac rcvdPkFromHl:vector(packetBytes) ETV
attr interpolationmode none
attr source packetReceivedFromUpper
attr title "packets received from higher layer, vector(packetBytes)"
vector 158 AODVNetwork.host[11].wlan[0].mac.queue packetPushed:vector(packetBytes) ETV
attr interpolationmode none
attr title "packet pushed, vector(packetBytes)"
vector 159 AODVNetwork.host[11].wlan[0].mac.queue queueLength:vector ETV
attr interpolationmode sample-hold
attr source "count(packetPushed) - count(packetPopped) - count(packetRemoved) - count(packetDropped)"
attr title "queue length, vector"
vector 160 AODVNetwork.host[11].wlan[0].mac.queue packetPopped:vector(packetBytes) ETV
attr interpolationmode none
attr title "packet popped, vector(packetBytes)"
vector 161 AODVNetwork.host[11].wlan[0].mac.queue queueingTime:vector ETV
attr interpolationmode none
attr source queueingTime(packetPopped)
attr title "queueing times, vector"
attr unit s
vector 162 AODVNetwork.host[11].wlan[0].mac sentDownPk:vector(packetBytes) ETV
attr interpolationmode none
attr source packetSentToLower
attr title "packets sent to lower layer, vector(packetBytes)"
vector 163 AODVNetwork.host[3].ipv4.arp arpReplySent:vector(packetBytes) ETV
attr source arpReplySent
attr title "ARP replies sent, vector(packetBytes)"
vector 164 AODVNetwork.host[9].wlan[0].mac rcvdPkFromLl:vector(packetBytes) ETV
attr interpolationmode none
attr source packetReceivedFromLower
attr title "packets received from lower layer, vector(packetBytes)"
vector 165 AODVNetwork.host[9].wlan[0].mac passedUpPk:vector(packetBytes) ETV
attr interpolationmode none
attr source packetSentToUpper
attr title "packets passed to higher layer, vector(packetBytes)"
vector 166 AODVNetwork.host[16].wlan[0].mac rcvdPkFromLl:vector(packetBytes) ETV
attr interpolationmode none
attr source packetReceivedFromLower
attr title "packets received from lower layer, vector(packetBytes)"
vector 167 AODVNetwork.host[16].wlan[0].mac passedUpPk:vector(packetBytes) ETV
attr interpolationmode none
attr source packetSentToUpper
attr title "packets passed to higher layer, vector(packetBytes)"
vector 168 AODVNetwork.host[14].udp packetSent:vector(packetBytes) ETV
attr interpolationmode none
attr source packetSent
attr title "packets sent, vector(packetBytes)"
vector 169 AODVNetwork.host[14].wlan[0].mac rcvdPkFromHl:vector(packetBytes) ETV
attr interpolationmode none
attr source packetReceivedFromUpper
attr title "packets received from higher layer, vector(packetBytes)"
vector 170 AODVNetwork.host[14].wlan[0].mac.queue packetPushed:vector(packetBytes) ETV
attr interpolationmode none
attr title "packet pushed, vector(packetBytes)"
vector 171 AODVNetwork.host[14].wlan[0].mac.queue queueLength:vector ETV
attr interpolationmode sample-hold
attr source "count(packetPushed) - count(packetPopped) - count(packetRemoved) - count(packetDropped)"
attr title "queue length, vector"
vector 172 AODVNetwork.host[14].wlan[0].mac.queue packetPopped:vector(packetBytes) ETV
attr interpolationmode none
attr title "packet popped, vector(packetBytes)"
vector 173 AODVNetwork.host[14].wlan[0].mac.queue queueingTime:vector ETV
attr interpolationmode none
attr source queueingTime(packetPopped)
attr title "queueing times, vector"
attr unit s
vector 174 AODVNetwork.host[14].wlan[0].mac sentDownPk:vector(packetBytes) ETV
attr interpolationmode none
attr source packetSentToLower
attr title "packets sent to lower layer, vector(packetBytes)"
vector 175 AODVNetwork.host[18].udp packetSent:vector(packetBytes) ETV
attr interpolationmode none
attr source packetSent
attr title "packets sent, vector(packetBytes)"
vector 176 AODVNetwork.host[18].wlan[0].mac rcvdPkFromHl:vector(packetBytes) ETV
attr interpolationmode none
attr source packetReceivedFromUpper
attr title "packets received from higher layer, vector(packetBytes)"
vector 177 AODVNetwork.host[18].wlan[0].mac.queue packetPushed:vector(packetBytes) ETV
attr interpolationmode none
attr title "packet pushed, vector(packetBytes)"
vector 178 AODVNetwork.host[18].wlan[0].mac.queue queueLength:vector ETV
attr interpolationmode sample-hold
attr source "count(packetPushed) - count(packetPopped) - count(packetRemoved) - count(packetDropped)"
attr title "queue length, vector"
vector 179 AODVNetwork.host[18].wlan[0].mac.queue packetPopped:vector(packetBytes) ETV
attr interpolationmode none
attr title "packet popped, vector(packetBytes)"
vector 180 AODVNetwork.host[18].wlan[0].mac.queue queueingTime:vector ETV
attr interpolationmode none
attr source queueingTime(packetPopped)
attr title "queueing times, vector"
attr unit s
vector 181 AODVNetwork.host[18].wlan[0].mac sentDownPk:vector(packetBytes) ETV
attr interpolationmode none
attr source packetSentToLower
attr title "packets sent to lower layer, vector(packetBytes)"
vector 182 AODVNetwork.host[12].wlan[0].mac packetDropNotAddressedToUs:vector(packetBytes) ETV
attr interpolationmode none
attr source packetDropReasonIsNotAddressedToUs(packetDropped)
attr title "packet drop: not addressed to us, vector(packetBytes)"
vector 183 AODVNetwork.host[17].wlan[0].mac packetDropNotAddressedToUs:vector(packetBytes) ETV
attr interpolationmode none
attr source packetDropReasonIsNotAddressedToUs(packetDropped)
attr title "packet drop: not addressed to us, vector(packetBytes)"
vector 184 AODVNetwork.host[11].wlan[0].mac packetDropNotAddressedToUs:vector(packetBytes) ETV
attr interpolationmode none
attr source packetDropReasonIsNotAddressedToUs(packetDropped)
attr title "packet drop: not addressed to us, vector(packetBytes)"
vector 185 AODVNetwork.host[13].wlan[0].mac packetDropNotAddressedToUs:vector(packetBytes) ETV
attr interpolationmode none
attr source packetDropReasonIsNotAddressedToUs(packetDropped)
attr title "packet drop: not addressed to us, vector(packetBytes)"
vector 186 AODVNetwork.host[2].wlan[0].mac rcvdPkFromLl:vector(packetBytes) ETV
attr interpolationmode none
attr source packetReceivedFromLower
attr title "packets received from lower layer, vector(packetBytes)"
vector 187 AODVNetwork.host[2].wlan[0].mac passedUpPk:vector(packetBytes) ETV
attr interpolationmode none
attr source packetSentToUpper
attr title "packets passed to higher layer, vector(packetBytes)"
vector 188 AODVNetwork.host[2].udp packetReceived:vector(packetBytes) ETV
attr interpolationmode none
attr source packetReceived
attr title "packets received, vector(packetBytes)"
vector 189 AODVNetwork.host[2].udp passedUpPk:vector(count) ETV
attr interpolationmode none
attr source packetSentToUpper
attr title "packets passed up, vector(count)"
vector 190 AODVNetwork.host[6].wlan[0].mac rcvdPkFromLl:vector(packetBytes) ETV
attr interpolationmode none
attr source packetReceivedFromLower
attr title "packets received from lower layer, vector(packetBytes)"
vector 191 AODVNetwork.host[6].wlan[0].mac passedUpPk:vector(packetBytes) ETV
attr interpolationmode none
attr source packetSentToUpper
attr title "packets passed to higher layer, vector(packetBytes)"
vector 192 AODVNetwork.host[6].udp packetReceived:vector(packetBytes) ETV
attr interpolationmode none
attr source packetReceived
attr title "packets received, vector(packetBytes)"
vector 193 AODVNetwork.host[6].udp passedUpPk:vector(count) ETV
attr interpolationmode none
attr source packetSentToUpper
attr title "packets passed up, vector(count)"
vector 194 AODVNetwork.host[16].udp packetReceived:vector(packetBytes) ETV
attr interpolationmode none
attr source packetReceived
attr title "packets received, vector(packetBytes)"
vector 195 AODVNetwork.host[16].udp passedUpPk:vector(count) ETV
attr interpolationmode none
attr source packetSentToUpper
attr title "packets passed up, vector(count)"
vector 196 AODVNetwork.host[9].udp packetReceived:vector(packetBytes) ETV
attr interpolationmode none
attr source packetReceived
attr title "packets received, vector(packetBytes)"
vector 197 AODVNetwork.host[9].udp passedUpPk:vector(count) ETV
attr interpolationmode none
attr source packetSentToUpper
attr title "packets passed up, vector(count)"
vector 198 AODVNetwork.host[12].udp packetSent:vector(packetBytes) ETV
attr interpolationmode none
attr source packetSent
attr title "packets sent, vector(packetBytes)"
vector 199 AODVNetwork.host[12].wlan[0].mac rcvdPkFromHl:vector(packetBytes) ETV
attr interpolationmode none
attr source packetReceivedFromUpper
attr title "packets received from higher layer, vector(packetBytes)"
vector 200 AODVNetwork.host[12].wlan[0].mac.queue packetPushed:vector(packetBytes) ETV
attr interpolationmode none
attr title "packet pushed, vector(packetBytes)"
vector 201 AODVNetwork.host[12].wlan[0].mac.queue queueLength:vector ETV
attr interpolationmode sample-hold
attr source "count(packetPushed) - count(packetPopped) - count(packetRemoved) - count(packetDropped)"
attr title "queue length, vector"
vector 202 AODVNetwork.host[12].wlan[0].mac.queue packetPopped:vector(packetBytes) ETV
attr interpolationmode none
attr title "packet popped, vector(packetBytes)"
vector 203 AODVNetwork.host[12].wlan[0].mac.queue queueingTime:vector ETV
attr interpolationmode none
attr source queueingTime(packetPopped)
attr title "queueing times, vector"
attr unit s
vector 204 AODVNetwork.host[12].wlan[0].mac sentDownPk:vector(packetBytes) ETV
attr interpolationmode none
attr source packetSentToLower
attr title "packets sent to lower layer, vector(packetBytes)"
vector 205 AODVNetwork.host[19].udp packetSent:vector(packetBytes) ETV
attr interpolationmode none
attr source packetSent
attr title "packets sent, vector(packetBytes)"
vector 206 AODVNetwork.host[19].wlan[0].mac rcvdPkFromHl:vector(packetBytes) ETV
attr interpolationmode none
attr source packetReceivedFromUpper
attr title "packets received from higher layer, vector(packetBytes)"
vector 207 AODVNetwork.host[19].wlan[0].mac.queue packetPushed:vector(packetBytes) ETV
attr interpolationmode none
attr title "packet pushed, vector(packetBytes)"
vector 208 AODVNetwork.host[19].wlan[0].mac.queue queueLength:vector ETV
attr interpolationmode sample-hold
attr source "count(packetPushed) - count(packetPopped) - count(packetRemoved) - count(packetDropped)"
attr title "queue length, vector"
vector 209 AODVNetwork.host[19].wlan[0].mac.queue packetPopped:vector(packetBytes) ETV
attr interpolationmode none
attr title "packet popped, vector(packetBytes)"
vector 210 AODVNetwork.host[19].wlan[0].mac.queue queueingTime:vector ETV
attr interpolationmode none
attr source queueingTime(packetPopped)
attr title "queueing times, vector"
attr unit s
vector 211 AODVNetwork.host[19].wlan[0].mac sentDownPk:vector(packetBytes) ETV
attr interpolationmode none
attr source packetSentToLower
attr title "packets sent to lower layer, vector(packetBytes)"
vector 212 AODVNetwork.host[16].udp packetSent:vector(packetBytes) ETV
attr interpolationmode none
attr source packetSent
attr title "packets sent, vector(packetBytes)"
vector 213 AODVNetwork.host[16].wlan[0].mac rcvdPkFromHl:vector(packetBytes) ETV
attr interpolationmode none
attr source packetReceivedFromUpper
attr title "packets received from higher layer, vector(packetBytes)"
vector 214 AODVNetwork.host[16].wlan[0].mac.queue packetPushed:vector(packetBytes) ETV
attr interpolationmode none
attr title "packet pushed, vector(packetBytes)"
vector 215 AODVNetwork.host[16].wlan[0].mac.queue queueLength:vector ETV
attr interpolationmode sample-hold
attr source "count(packetPushed) - count(packetPopped) - count(packetRemoved) - count(packetDropped)"
attr title "queue length, vector"
vector 216 AODVNetwork.host[16].wlan[0].mac.queue packetPopped:vector(packetBytes) ETV
attr interpolationmode none
attr title "packet popped, vector(packetBytes)"
vector 217 AODVNetwork.host[16].wlan[0].mac.queue queueingTime:vector ETV
attr interpolationmode none
attr source queueingTime(packetPopped)
attr title "queueing times, vector"
attr unit s
vector 218 AODVNetwork.host[16].wlan[0].mac sentDownPk:vector(packetBytes) ETV
attr interpolationmode none
attr source packetSentToLower
attr title "packets sent to lower layer, vector(packetBytes)"
vector 219 AODVNetwork.host[9].udp packetSent:vector(packetBytes) ETV
attr interpolationmode none
attr source packetSent
attr title "packets sent, vector(packetBytes)"
vector 220 AODVNetwork.host[9].wlan[0].mac rcvdPkFromHl:vector(packetBytes) ETV
attr interpolationmode none
attr source packetReceivedFromUpper
attr title "packets received from higher layer, vector(packetBytes)"
vector 221 AODVNetwork.host[9].wlan[0].mac.queue packetPushed:vector(packetBytes) ETV
attr interpolationmode none
attr title "packet pushed, vector(packetBytes)"
vector 222 AODVNetwork.host[9].wlan[0].mac.queue queueLength:vector ETV
attr interpolationmode sample-hold
attr source "count(packetPushed) - count(packetPopped) - count(packetRemoved) - count(packetDropped)"
attr title "queue length, vector"
vector 223 AODVNetwork.host[9].wlan[0].mac.queue packetPopped:vector(packetBytes) ETV
attr interpolationmode none
attr title "packet popped, vector(packetBytes)"
vector 224 AODVNetwork.host[9].wlan[0].mac.queue queueingTime:vector ETV
attr interpolationmode none
attr source queueingTime(packetPopped)
attr title "queueing times, vector"
attr unit s
vector 225 AODVNetwork.host[9].wlan[0].mac sentDownPk:vector(packetBytes) ETV
attr interpolationmode none
attr source packetSentToLower
attr title "packets sent to lower layer, vector(packetBytes)"
vector 226 AODVNetwork.host[13].udp packetSent:vector(packetBytes) ETV
attr interpolationmode none
attr source packetSent
attr title "packets sent, vector(packetBytes)"
vector 227 AODVNetwork.host[13].wlan[0].mac rcvdPkFromHl:vector(packetBytes) ETV
attr interpolationmode none
attr source packetReceivedFromUpper
attr title "packets received from higher layer, vector(packetBytes)"
vector 228 AODVNetwork.host[13].wlan[0].mac.queue packetPushed:vector(packetBytes) ETV
attr interpolationmode none
attr title "packet pushed, vector(packetBytes)"
vector 229 AODVNetwork.host[13].wlan[0].mac.queue queueLength:vector ETV
attr interpolationmode sample-hold
attr source "count(packetPushed) - count(packetPopped) - count(packetRemoved) - count(packetDropped)"
attr title "queue length, vector"
vector 230 AODVNetwork.host[13].wlan[0].mac.queue packetPopped:vector(packetBytes) ETV
attr interpolationmode none
attr title "packet popped, vector(packetBytes)"
vector 231 AODVNetwork.host[13].wlan[0].mac.queue queueingTime:vector ETV
attr interpolationmode none
attr source queueingTime(packetPopped)
attr title "queueing times, vector"
attr unit s
vector 232 AODVNetwork.host[13].wlan[0].mac sentDownPk:vector(packetBytes) ETV
attr interpolationmode none
attr source packetSentToLower
attr title "packets sent to lower layer, vector(packetBytes)"
vector 233 AODVNetwork.host[17].udp packetSent:vector(packetBytes) ETV
attr interpolationmode none
attr source packetSent
attr title "packets sent, vector(packetBytes)"
vector 234 AODVNetwork.host[17].wlan[0].mac rcvdPkFromHl:vector(packetBytes) ETV
attr interpolationmode none
attr source packetReceivedFromUpper
attr title "packets received from higher layer, vector(packetBytes)"
vector 235 AODVNetwork.host[17].wlan[0].mac.queue packetPushed:vector(packetBytes) ETV
attr interpolationmode none
attr title "packet pushed, vector(packetBytes)"
vector 236 AODVNetwork.host[17].wlan[0].mac.queue queueLength:vector ETV
attr interpolationmode sample-hold
attr source "count(packetPushed) - count(packetPopped) - count(packetRemoved) - count(packetDropped)"
attr title "queue length, vector"
vector 237 AODVNetwork.host[17].wlan[0].mac.queue packetPopped:vector(packetBytes) ETV
attr interpolationmode none
attr title "packet popped, vector(packetBytes)"
vector 238 AODVNetwork.host[17].wlan[0].mac.queue queueingTime:vector ETV
attr interpolationmode none
attr source queueingTime(packetPopped)
attr title "queueing times, vector"
attr unit s
vector 239 AODVNetwork.host[17].wlan[0].mac sentDownPk:vector(packetBytes) ETV
attr interpolationmode none
attr source packetSentToLower
attr title "packets sent to lower layer, vector(packetBytes)"
vector 240 AODVNetwork.host[6].udp packetSent:vector(packetBytes) ETV
attr interpolationmode none
attr source packetSent
attr title "packets sent, vector(packetBytes)"
vector 241 AODVNetwork.host[6].wlan[0].mac rcvdPkFromHl:vector(packetBytes) ETV
attr interpolationmode none
attr source packetReceivedFromUpper
attr title "packets received from higher layer, vector(packetBytes)"
vector 242 AODVNetwork.host[6].wlan[0].mac.queue packetPushed:vector(packetBytes) ETV
attr interpolationmode none
attr title "packet pushed, vector(packetBytes)"
vector 243 AODVNetwork.host[6].wlan[0].mac.queue queueLength:vector ETV
attr interpolationmode sample-hold
attr source "count(packetPushed) - count(packetPopped) - count(packetRemoved) - count(packetDropped)"
attr title "queue length, vector"
vector 244 AODVNetwork.host[6].wlan[0].mac.queue packetPopped:vector(packetBytes) ETV
attr interpolationmode none
attr title "packet popped, vector(packetBytes)"
vector 245 AODVNetwork.host[6].wlan[0].mac.queue queueingTime:vector ETV
attr interpolationmode none
attr source queueingTime(packetPopped)
attr title "queueing times, vector"
attr unit s
vector 246 AODVNetwork.host[6].wlan[0].mac sentDownPk:vector(packetBytes) ETV
attr interpolationmode none
attr source packetSentToLower
attr title "packets sent to lower layer, vector(packetBytes)"
vector 247 AODVNetwork.host[5].wlan[0].mac rcvdPkFromLl:vector(packetBytes) ETV
attr interpolationmode none
attr source packetReceivedFromLower
attr title "packets received from lower layer, vector(packetBytes)"
vector 248 AODVNetwork.host[5].wlan[0].mac passedUpPk:vector(packetBytes) ETV
attr interpolationmode none
attr source packetSentToUpper
attr title "packets passed to higher layer, vector(packetBytes)"
vector 249 AODVNetwork.host[5].udp packetReceived:vector(packetBytes) ETV
attr interpolationmode none
attr source packetReceived
attr title "packets received, vector(packetBytes)"
vector 250 AODVNetwork.host[5].udp passedUpPk:vector(count) ETV
attr interpolationmode none
attr source packetSentToUpper
attr title "packets passed up, vector(count)"
vector 251 AODVNetwork.host[7].wlan[0].mac rcvdPkFromLl:vector(packetBytes) ETV
attr interpolationmode none
attr source packetReceivedFromLower
attr title "packets received from lower layer, vector(packetBytes)"
vector 252 AODVNetwork.host[7].wlan[0].mac passedUpPk:vector(packetBytes) ETV
attr interpolationmode none
attr source packetSentToUpper
attr title "packets passed to higher layer, vector(packetBytes)"
vector 253 AODVNetwork.host[7].udp packetReceived:vector(packetBytes) ETV
attr interpolationmode none
attr source packetReceived
attr title "packets received, vector(packetBytes)"
vector 254 AODVNetwork.host[7].udp passedUpPk:vector(count) ETV
attr interpolationmode none
attr source packetSentToUpper
attr title "packets passed up, vector(count)"
vector 255 AODVNetwork.host[8].wlan[0].mac rcvdPkFromLl:vector(packetBytes) ETV
attr interpolationmode none
attr source packetReceivedFromLower
attr title "packets received from lower layer, vector(packetBytes)"
vector 256 AODVNetwork.host[8].wlan[0].mac passedUpPk:vector(packetBytes) ETV
attr interpolationmode none
attr source packetSentToUpper
attr title "packets passed to higher layer, vector(packetBytes)"
vector 257 AODVNetwork.host[8].udp packetReceived:vector(packetBytes) ETV
attr interpolationmode none
attr source packetReceived
attr title "packets received, vector(packetBytes)"
vector 258 AODVNetwork.host[8].udp passedUpPk:vector(count) ETV
attr interpolationmode none
attr source packetSentToUpper
attr title "packets passed up, vector(count)"
vector 259 AODVNetwork.host[2].udp packetSent:vector(packetBytes) ETV
attr interpolationmode none
attr source packetSent
attr title "packets sent, vector(packetBytes)"
vector 260 AODVNetwork.host[2].wlan[0].mac rcvdPkFromHl:vector(packetBytes) ETV
attr interpolationmode none
attr source packetReceivedFromUpper
attr title "packets received from higher layer, vector(packetBytes)"
vector 261 AODVNetwork.host[2].wlan[0].mac.queue packetPushed:vector(packetBytes) ETV
attr interpolationmode none
attr title "packet pushed, vector(packetBytes)"
vector 262 AODVNetwork.host[2].wlan[0].mac.queue queueLength:vector ETV
attr interpolationmode sample-hold
attr source "count(packetPushed) - count(packetPopped) - count(packetRemoved) - count(packetDropped)"
attr title "queue length, vector"
vector 263 AODVNetwork.host[2].wlan[0].mac.queue packetPopped:vector(packetBytes) ETV
attr interpolationmode none
attr title "packet popped, vector(packetBytes)"
vector 264 AODVNetwork.host[2].wlan[0].mac.queue queueingTime:vector ETV
attr interpolationmode none
attr source queueingTime(packetPopped)
attr title "queueing times, vector"
attr unit s
vector 265 AODVNetwork.host[2].wlan[0].mac sentDownPk:vector(packetBytes) ETV
attr interpolationmode none
attr source packetSentToLower
attr title "packets sent to lower layer, vector(packetBytes)"
vector 266 AODVNetwork.host[8].udp packetSent:vector(packetBytes) ETV
attr interpolationmode none
attr source packetSent
attr title "packets sent, vector(packetBytes)"
vector 267 AODVNetwork.host[8].wlan[0].mac rcvdPkFromHl:vector(packetBytes) ETV
attr interpolationmode none
attr source packetReceivedFromUpper
attr title "packets received from higher layer, vector(packetBytes)"
vector 268 AODVNetwork.host[8].wlan[0].mac.queue packetPushed:vector(packetBytes) ETV
attr interpolationmode none
attr title "packet pushed, vector(packetBytes)"
vector 269 AODVNetwork.host[8].wlan[0].mac.queue queueLength:vector ETV
attr interpolationmode sample-hold
attr source "count(packetPushed) - count(packetPopped) - count(packetRemoved) - count(packetDropped)"
attr title "queue length, vector"
vector 270 AODVNetwork.host[8].wlan[0].mac.queue packetPopped:vector(packetBytes) ETV
attr interpolationmode none
attr title "packet popped, vector(packetBytes)"
vector 271 AODVNetwork.host[8].wlan[0].mac.queue queueingTime:vector ETV
attr interpolationmode none
attr source queueingTime(packetPopped)
attr title "queueing times, vector"
attr unit s
vector 272 AODVNetwork.host[8].wlan[0].mac sentDownPk:vector(packetBytes) ETV
attr interpolationmode none
attr source packetSentToLower
attr title "packets sent to lower layer, vector(packetBytes)"
vector 273 AODVNetwork.host[5].udp packetSent:vector(packetBytes) ETV
attr interpolationmode none
attr source packetSent
attr title "packets sent, vector(packetBytes)"
vector 274 AODVNetwork.host[5].wlan[0].mac rcvdPkFromHl:vector(packetBytes) ETV
attr interpolationmode none
attr source packetReceivedFromUpper
attr title "packets received from higher layer, vector(packetBytes)"
vector 275 AODVNetwork.host[5].wlan[0].mac.queue packetPushed:vector(packetBytes) ETV
attr interpolationmode none
attr title "packet pushed, vector(packetBytes)"
vector 276 AODVNetwork.host[5].wlan[0].mac.queue queueLength:vector ETV
attr interpolationmode sample-hold
attr source "count(packetPushed) - count(packetPopped) - count(packetRemoved) - count(packetDropped)"
attr title "queue length, vector"
vector 277 AODVNetwork.host[5].wlan[0].mac.queue packetPopped:vector(packetBytes) ETV
attr interpolationmode none
attr title "packet popped, vector(packetBytes)"
vector 278 AODVNetwork.host[5].wlan[0].mac.queue queueingTime:vector ETV
attr interpolationmode none
attr source queueingTime(packetPopped)
attr title "queueing times, vector"
attr unit s
vector 279 AODVNetwork.host[5].wlan[0].mac sentDownPk:vector(packetBytes) ETV
attr interpolationmode none
attr source packetSentToLower
attr title "packets sent to lower layer, vector(packetBytes)"
vector 280 AODVNetwork.host[7].udp packetSent:vector(packetBytes) ETV
attr interpolationmode none
attr source packetSent
attr title "packets sent, vector(packetBytes)"
vector 281 AODVNetwork.host[7].wlan[0].mac rcvdPkFromHl:vector(packetBytes) ETV
attr interpolationmode none
attr source packetReceivedFromUpper
attr title "packets received from higher layer, vector(packetBytes)"
vector 282 AODVNetwork.host[7].wlan[0].mac.queue packetPushed:vector(packetBytes) ETV
attr interpolationmode none
attr title "packet pushed, vector(packetBytes)"
vector 283 AODVNetwork.host[7].wlan[0].mac.queue queueLength:vector ETV
attr interpolationmode sample-hold
attr source "count(packetPushed) - count(packetPopped) - count(packetRemoved) - count(packetDropped)"
attr title "queue length, vector"
vector 284 AODVNetwork.host[7].wlan[0].mac.queue packetPopped:vector(packetBytes) ETV
attr interpolationmode none
attr title "packet popped, vector(packetBytes)"
vector 285 AODVNetwork.host[7].wlan[0].mac.queue queueingTime:vector ETV
attr interpolationmode none
attr source queueingTime(packetPopped)
attr title "queueing times, vector"
attr unit s
vector 286 AODVNetwork.host[7].wlan[0].mac sentDownPk:vector(packetBytes) ETV
attr interpolationmode none
attr source packetSentToLower
attr title "packets sent to lower layer, vector(packetBytes)"
vector 287 AODVNetwork.host[14].wlan[0].mac packetDropNotAddressedToUs:vector(packetBytes) ETV
attr interpolationmode none
attr source packetDropReasonIsNotAddressedToUs(packetDropped)
attr title "packet drop: not addressed to us, vector(packetBytes)"
vector 288 AODVNetwork.host[10].wlan[0].mac packetDropNotAddressedToUs:vector(packetBytes) ETV
attr interpolationmode none
attr source packetDropReasonIsNotAddressedToUs(packetDropped)
attr title "packet drop: not addressed to us, vector(packetBytes)"
vector 289 AODVNetwork.host[9].wlan[0].mac packetDropNotAddressedToUs:vector(packetBytes) ETV
attr interpolationmode none
attr source packetDropReasonIsNotAddressedToUs(packetDropped)
attr title "packet drop: not addressed to us, vector(packetBytes)"
vector 290 AODVNetwork.host[16].wlan[0].mac packetDropNotAddressedToUs:vector(packetBytes) ETV
attr interpolationmode none
attr source packetDropReasonIsNotAddressedToUs(packetDropped)
attr title "packet drop: not addressed to us, vector(packetBytes)"
vector 291 AODVNetwork.host[3].ipv4.arp arpRequestSent:vector(packetBytes) ETV
attr source arpRequestSent
attr title "ARP request sent, vector(packetBytes)"
vector 292 AODVNetwork.host[10].ipv4.arp arpReplySent:vector(packetBytes) ETV
attr source arpReplySent
attr title "ARP replies sent, vector(packetBytes)"
vector 293 AODVNetwork.host[15].wlan[0].mac packetDropNotAddressedToUs:vector(packetBytes) ETV
attr interpolationmode none
attr source packetDropReasonIsNotAddressedToUs(packetDropped)
attr title "packet drop: not addressed to us, vector(packetBytes)"
vector 294 AODVNetwork.host[19].wlan[0].mac packetDropNotAddressedToUs:vector(packetBytes) ETV
attr interpolationmode none
attr source packetDropReasonIsNotAddressedToUs(packetDropped)
attr title "packet drop: not addressed to us, vector(packetBytes)"
vector 295 AODVNetwork.host[18].wlan[0].mac packetDropNotAddressedToUs:vector(packetBytes) ETV
attr interpolationmode none
attr source packetDropReasonIsNotAddressedToUs(packetDropped)
attr title "packet drop: not addressed to us, vector(packetBytes)"
vector 296 AODVNetwork.host[1].wlan[0].mac packetDropNotAddressedToUs:vector(packetBytes) ETV
attr interpolationmode none
attr source packetDropReasonIsNotAddressedToUs(packetDropped)
attr title "packet drop: not addressed to us, vector(packetBytes)"
vector 297 AODVNetwork.host[10].ipv4.arp arpRequestSent:vector(packetBytes) ETV
attr source arpRequestSent
attr title "ARP request sent, vector(packetBytes)"
vector 298 AODVNetwork.host[15].ipv4.arp arpReplySent:vector(packetBytes) ETV
attr source arpReplySent
attr title "ARP replies sent, vector(packetBytes)"
vector 299 AODVNetwork.host[4].wlan[0].mac packetDropNotAddressedToUs:vector(packetBytes) ETV
attr interpolationmode none
attr source packetDropReasonIsNotAddressedToUs(packetDropped)
attr title "packet drop: not addressed to us, vector(packetBytes)"
vector 300 AODVNetwork.host[0].wlan[0].mac packetDropNotAddressedToUs:vector(packetBytes) ETV
attr interpolationmode none
attr source packetDropReasonIsNotAddressedToUs(packetDropped)
attr title "packet drop: not addressed to us, vector(packetBytes)"
vector 301 AODVNetwork.host[3].wlan[0].mac packetDropNotAddressedToUs:vector(packetBytes) ETV
attr interpolationmode none
attr source packetDropReasonIsNotAddressedToUs(packetDropped)
attr title "packet drop: not addressed to us, vector(packetBytes)"
vector 302 AODVNetwork.host[15].ipv4.arp arpRequestSent:vector(packetBytes) ETV
attr source arpRequestSent
attr title "ARP request sent, vector(packetBytes)"
vector 303 AODVNetwork.host[0].ipv4.arp arpReplySent:vector(packetBytes) ETV
attr source arpReplySent
attr title "ARP replies sent, vector(packetBytes)"
vector 304 AODVNetwork.host[12].ipv4.arp arpReplySent:vector(packetBytes) ETV
attr source arpReplySent
attr title "ARP replies sent, vector(packetBytes)"
vector 305 AODVNetwork.host[12].ipv4.arp arpRequestSent:vector(packetBytes) ETV
attr source arpRequestSent
attr title "ARP request sent, vector(packetBytes)"
vector 306 AODVNetwork.host[0].app[0] pingRxSeq:vector ETV
attr interpolationmode none
attr title "ping rx seq, vector"
vector 307 AODVNetwork.host[0].app[0] rtt:vector ETV
attr interpolationmode none
attr title "ping round-trip time, vector"
attr unit s
vector 308 AODVNetwork.host[11].ipv4.arp arpReplySent:vector(packetBytes) ETV
attr source arpReplySent
attr title "ARP replies sent, vector(packetBytes)"
vector 309 AODVNetwork.host[11].ipv4.arp arpRequestSent:vector(packetBytes) ETV
attr source arpRequestSent
attr title "ARP request sent, vector(packetBytes)"
vector 310 AODVNetwork.host[1].ipv4.arp arpReplySent:vector(packetBytes) ETV
attr source arpReplySent
attr title "ARP replies sent, vector(packetBytes)"
vector 311 AODVNetwork.host[7].wlan[0].mac packetDropNotAddressedToUs:vector(packetBytes) ETV
attr interpolationmode none
attr source packetDropReasonIsNotAddressedToUs(packetDropped)
attr title "packet drop: not addressed to us, vector(packetBytes)"
vector 312 AODVNetwork.host[6].wlan[0].mac packetDropNotAddressedToUs:vector(packetBytes) ETV
attr interpolationmode none
attr source packetDropReasonIsNotAddressedToUs(packetDropped)
attr title "packet drop: not addressed to us, vector(packetBytes)"
vector 313 AODVNetwork.host[2].wlan[0].mac packetDropNotAddressedToUs:vector(packetBytes) ETV
attr interpolationmode none
attr source packetDropReasonIsNotAddressedToUs(packetDropped)
attr title "packet drop: not addressed to us, vector(packetBytes)"
vector 314 AODVNetwork.host[5].wlan[0].mac packetDropNotAddressedToUs:vector(packetBytes) ETV
attr interpolationmode none
attr source packetDropReasonIsNotAddressedToUs(packetDropped)
attr title "packet drop: not addressed to us, vector(packetBytes)"
vector 315 AODVNetwork.host[19].ipv4.arp arpReplySent:vector(packetBytes) ETV
attr source arpReplySent
attr title "ARP replies sent, vector(packetBytes)"
vector 316 AODVNetwork.host[19].ipv4.arp arpRequestSent:vector(packetBytes) ETV
attr source arpRequestSent
attr title "ARP request sent, vector(packetBytes)"
vector 317 AODVNetwork.host[0].app[0] numLost:vector ETV
attr interpolationmode none
attr title "pings lost, vector"
vector 318 AODVNetwork.host[0].ipv4.arp arpRequestSent:vector(packetBytes) ETV
attr source arpRequestSent
attr title "ARP request sent, vector(packetBytes)"
vector 319 AODVNetwork.host[17].ipv4.arp arpReplySent:vector(packetBytes) ETV
attr source arpReplySent
attr title "ARP replies sent, vector(packetBytes)"
vector 320 AODVNetwork.host[17].ipv4.arp arpRequestSent:vector(packetBytes) ETV
attr source arpRequestSent
attr title "ARP request sent, vector(packetBytes)"
vector 321 AODVNetwork.host[7].ipv4.arp arpReplySent:vector(packetBytes) ETV
attr source arpReplySent
attr title "ARP replies sent, vector(packetBytes)"
vector 322 AODVNetwork.host[7].ipv4.arp arpRequestSent:vector(packetBytes) ETV
attr source arpRequestSent
attr title "ARP request sent, vector(packetBytes)"
vector 323 AODVNetwork.host[14].ipv4.arp arpReplySent:vector(packetBytes) ETV
attr source arpReplySent
attr title "ARP replies sent, vector(packetBytes)"
vector 324 AODVNetwork.host[14].ipv4.arp arpRequestSent:vector(packetBytes) ETV
attr source arpRequestSent
attr title "ARP request sent, vector(packetBytes)"
vector 325 AODVNetwork.host[9].ipv4.arp arpRequestSent:vector(packetBytes) ETV
attr source arpRequestSent
attr title "ARP request sent, vector(packetBytes)"
vector 326 AODVNetwork.host[2].ipv4.arp arpRequestSent:vector(packetBytes) ETV
attr source arpRequestSent
attr title "ARP request sent, vector(packetBytes)"
vector 327 AODVNetwork.host[13].ipv4.arp arpRequestSent:vector(packetBytes) ETV
attr source arpRequestSent
attr title "ARP request sent, vector(packetBytes)"
vector 328 AODVNetwork.host[18].ipv4.arp arpRequestSent:vector(packetBytes) ETV
attr source arpRequestSent
attr title "ARP request sent, vector(packetBytes)"
vector 329 AODVNetwork.host[13].ipv4.ip packetDropAddressResolutionFailed:vector(packetBytes) ETV
attr interpolationmode none
attr source packetDropReasonIsAddressResolutionFailed(packetDropped)
attr title "packet drop: address resolution failed, vector(packetBytes)"
vector 330 AODVNetwork.host[18].ipv4.ip packetDropAddressResolutionFailed:vector(packetBytes) ETV
attr interpolationmode none
attr source packetDropReasonIsAddressResolutionFailed(packetDropped)
attr title "packet drop: address resolution failed, vector(packetBytes)"
vector 331 AODVNetwork.host[8].wlan[0].mac packetDropNotAddressedToUs:vector(packetBytes) ETV
attr interpolationmode none
attr source packetDropReasonIsNotAddressedToUs(packetDropped)
attr title "packet drop: not addressed to us, vector(packetBytes)"
vector 332 AODVNetwork.host[2].ipv4.arp arpReplySent:vector(packetBytes) ETV
attr source arpReplySent
attr title "ARP replies sent, vector(packetBytes)"
vector 333 AODVNetwork.host[6].ipv4.arp arpReplySent:vector(packetBytes) ETV
attr source arpReplySent
attr title "ARP replies sent, vector(packetBytes)"
vector 334 AODVNetwork.host[6].ipv4.arp arpRequestSent:vector(packetBytes) ETV
attr source arpRequestSent
attr title "ARP request sent, vector(packetBytes)"
vector 335 AODVNetwork.host[5].ipv4.arp arpReplySent:vector(packetBytes) ETV
attr source arpReplySent
attr title "ARP replies sent, vector(packetBytes)"
vector 336 AODVNetwork.host[5].ipv4.arp arpRequestSent:vector(packetBytes) ETV
attr source arpRequestSent
attr title "ARP request sent, vector(packetBytes)"
vector 337 AODVNetwork.host[4].ipv4.arp arpReplySent:vector(packetBytes) ETV
attr source arpReplySent
attr title "ARP replies sent, vector(packetBytes)"
vector 338 AODVNetwork.host[4].ipv4.arp arpRequestSent:vector(packetBytes) ETV
attr source arpRequestSent
attr title "ARP request sent, vector(packetBytes)"
vector 339 AODVNetwork.host[16].ipv4.arp arpReplySent:vector(packetBytes) ETV
attr source arpReplySent
attr title "ARP replies sent, vector(packetBytes)"
vector 340 AODVNetwork.host[16].ipv4.arp arpRequestSent:vector(packetBytes) ETV
attr source arpRequestSent
attr title "ARP request sent, vector(packetBytes)"
vector 341 AODVNetwork.host[8].ipv4.arp arpRequestSent:vector(packetBytes) ETV
attr source arpRequestSent
attr title "ARP request sent, vector(packetBytes)"
vector 342 AODVNetwork.host[18].ipv4.arp arpReplySent:vector(packetBytes) ETV
attr source arpReplySent
attr title "ARP replies sent, vector(packetBytes)"
vector 343 AODVNetwork.host[13].ipv4.arp arpReplySent:vector(packetBytes) ETV
attr source arpReplySent
attr title "ARP replies sent, vector(packetBytes)"
vector 344 AODVNetwork.host[8].ipv4.arp arpReplySent:vector(packetBytes) ETV
attr source arpReplySent
attr title "ARP replies sent, vector(packetBytes)"
vector 345 AODVNetwork.host[0].app[0] numOutOfOrderArrivals:vector ETV
attr interpolationmode none
attr title "ping out-of-order arrivals, vector"
vector 346 AODVNetwork.host[9].ipv4.arp arpReplySent:vector(packetBytes) ETV
attr source arpReplySent
attr title "ARP replies sent, vector(packetBytes)"
20	67931 202628 737 1049879 3.202142335711 1336.196207330367 6985 1 3 13974 34846
21	270559 94052 666 1049830 3.198218232299 1336.195730009217 3232 1 2 4848 8080
22	364611 188895 1141 1050083 3.527762527982 1336.19811414513 6510 1 3 13029 32455
23	553506 86148 1177 1050022 3.528110527982 1336.197636790393 2970 1 2 4455 7425
24	639654 229328 1337 1050076 3.528462782649 1336.198113934529 7907 1 3 15845 39501
25	868982 13714 2721 1044403 4.014561273215 1329.369524348536 472 1 2 708 1180
26	882696 405722 1073 1050072 3.525926488763 1336.198113808627 13996 1 3 28041 69891
27	1288418 52496 1138 1045067 3.527762161789 1329.372715495243 1794 1 2 2691 4485
28	1340914 287388 667 1050091 3.198218310605 1336.198114292632 9890 1 3 19793 49361
29	1628302 27722 736 1045096 3.20214225743 1329.372737287767 946 1 2 1419 2365
30	1656024 171958 2659 1050029 4.014114238118 1336.197637364083 5888 1 3 11794 29356
31	1827982 21146 2769 1044475 4.014897884603 1329.370075230951 714 1 2 1071 1785
32	1849128 374687 1338 1050074 3.528462895195 1336.198113932138 12860 1 3 25758 64184
33	2223815 29374 2657 1045124 4.014113795692 1329.372858368017 1014 1 2 1521 2535
34	2253189 354285 2660 1049933 4.014114260431 1336.196684169429 12187 1 3 24394 60850
35	2607474 61324 2879 1049874 4.017703119814 1336.196206669792 2098 1 2 3147 5245
36	2668798 170204 2662 1049483 4.014114469841 1335.198590850483 5787 1 3 11597 28887
37	2839002 16316 2745 1044783 4.014563561837 1329.371514558041 550 1 2 825 1375
38	2855318 223810 1206 1049935 3.528111154048 1336.196684235925 7713 1 3 15456 38540
39	3079128 12186 2461 1044983 4.011620678847 1329.372429216412 412 1 2 618 1030
40	3091314 274430 790 1050102 3.202788812066 1336.198114710004 9458 1 3 18933 47211
41	3365744 49695 1066 1049517 3.525925749816 1335.199066719464 1718 1 2 2577 4295
42	3415439 279625 1071 1049926 3.525926456655 1336.196684102169 9627 1 3 19284 48052
43	3695064 57906 1233 1045043 3.528196365196 1329.372549221671 2028 1 2 3042 5070
44	3752970 355219 1069 1050087 3.52592640672 1336.198114171672 12253 1 3 24540 61166
45	4108189 67678 1485 1044563 3.529392225202 1329.370656379923 2326 1 2 3489 5815
46	4175867 179547 1144 1050089 3.527762825573 1336.198114204694 6196 1 3 12418 30978
47	4355414 21920 2485 1044811 4.011641381622 1329.371717521795 756 1 2 1134 1890
48	4377334 322708 1067 1050099 3.525926224158 1336.198114612917 11187 1 3 22397 55829
49	4700042 48040 1312 1045233 3.528392498142 1329.374083525795 1650 1 2 2475 4125
50	4748082 312434 668 1050078 3.198218858945 1336.1981140621 10715 1 3 21457 53503
51	5060516 42751 788 1050082 3.202788187665 1336.1981140621 1507 1 2 2261 3769
52	5103267 268414 1208 1050085 3.52811126938 1336.198114161186 9196 1 3 18405 45879
53	5371681 57422 2268 1049921 4.010288791641 1336.196683419612 1948 1 2 2922 4870
54	5429103 197981 1140 1049530 3.527762418421 1335.19906738491 6883 1 3 13790 34378
55	5627084 20372 2585 1045470 4.012046389884 1329.37750836957 704 1 2 1056 1760
56	5647456 93825 1072 1049518 3.525926481816 1335.199067151347 3232 1 3 6467 16117
57	5741281 5926 1336 1045519 3.528462417866 1329.378081897122 202 1 2 303 505
58	5747207 347221 792 1050100 3.202789020161 1336.19811465644 11971 1 3 23974 59772
59	6094428 58490 1509 1050071 3.529503915792 1336.198113467763 2020 1 2 3030 5050
60	6152918 41704 659 1049807 3.195254009217 1336.195254009217 1334 0 1333 889111 790419679
61	6194622 8024 663 1045157 3.198218232299 1329.372892664339 266 20 44 8016 246816
62	6202646 48647 665 1049809 3.198218232299 1336.195254009217 1616 28 84 125224 10030112
63	6251293 48647 665 1049809 3.198218232299 1336.195254009217 1616 28 84 125224 10030112
64	6299940 94057 665 1049809 3.198218232299 1336.195254009217 3232 0 4 1654 1740
65	6393997 48642 665 1049809 3.198218232299 1336.195254009217 1616 28 84 125224 10030112
66	6442639 47407 665 1049809 3.198218232299 1336.195254009217 1616 0 0.001906506179 0.023352606852 2.5211971202676e-05
67	6490046 49965 665 1049809 3.198218232299 1336.195254009217 1616 51 107 162392 16645280
68	6540011 150501 688 1050092 3.198566310605 1336.198114292632 4881 51 107 483519 49034033
69	6690512 35634 688 1045187 3.198566310605 1329.373241492739 1180 28 84 67692 4158992
70	6726146 25902 690 1045189 3.198566310605 1329.373241492739 859 20 44 26908 850416
71	6752048 26653 690 1045189 3.198566310605 1329.373241492739 859 1 859 369370 211649010
72	6778701 163542 693 1050079 3.198566858945 1336.1981140621 5281 51 107 528783 54111681
73	6942243 39083 693 1050079 3.198566858945 1336.1981140621 1311 28 84 83908 5834128
74	6981326 19185 695 1045321 3.198566858945 1329.376089068764 632 20 36 19944 632288
75	7000511 19709 695 1045321 3.198566858945 1329.376089068764 632 1 632 200028 84345140
76	7020220 6018 733 1044960 3.20214225743 1329.372389287767 199 20 36 6280 198976
77	7026238 14334 735 1044962 3.20214225743 1329.372389287767 473 28 84 32548 2381584
78	7040572 14334 735 1044962 3.20214225743 1329.372389287767 473 28 84 32548 2381584
79	7054906 27722 735 1044962 3.20214225743 1329.372389287767 946 0 1 473 473
80	7082628 14334 735 1044962 3.20214225743 1329.372389287767 473 28 84 32548 2381584
81	7096962 13874 735 1044962 3.20214225743 1329.372389287767 473 0 0.099523390691 0.099523390691 0.0099049052946334
82	7110836 14595 735 1044962 3.20214225743 1329.372389287767 473 51 107 43427 4129009
83	7125431 106104 758 1049880 3.202490335711 1336.196207330367 3447 51 107 341373 34594239
84	7231535 59680 758 1049572 3.202490335711 1335.199544015425 1987 28 84 141996 10704912
85	7291215 21008 760 1045594 3.202490335711 1329.381596669422 697 20 36 21712 681184
86	7312223 21597 760 1045594 3.202490335711 1329.381596669422 697 1 697 243253 113112645
87	7333820 4460 785 1045339 3.202788187665 1329.376261576326 148 20 36 4572 142096
88	7338280 22145 787 1050081 3.202788187665 1336.1981140621 754 28 84 56812 4478224
89	7360425 22145 787 1050081 3.202788187665 1336.1981140621 754 28 84 56812 4478224
90	7382570 42781 787 1050081 3.202788187665 1336.1981140621 1508 0 1 754 754
91	7425351 22144 787 1050081 3.202788187665 1336.1981140621 754 28 84 56812 4478224
92	7447495 21535 787 1050081 3.202788187665 1336.1981140621 754 0 0.068969244868 0.0769009521 0.0048097310196196
93	7469030 22721 787 1050081 3.202788187665 1336.1981140621 754 51 107 74154 7490442
94	7491751 143587 815 1049878 3.203136812066 1336.19620730708 4663 51 107 461993 46871287
95	7635338 46023 815 1049472 3.203136812066 1335.198590719464 1531 28 84 98520 6829152
96	7681361 24094 817 1045533 3.203136812066 1329.378082366411 797 20 36 25124 796688
97	7705455 24783 817 1045533 3.203136812066 1329.378082366411 797 1 797 318003 169071595
98	7730238 181537 825 1050036 3.203137020161 1336.197637467763 5895 51 107 586521 59700871
99	7911775 53889 825 1050036 3.203137020161 1336.197637467763 1795 28 84 116220 8117488
100	7965664 27848 827 1044831 3.203137020161 1329.371718309738 895 20 36 28152 891392
101	7993512 28635 827 1044831 3.203137020161 1329.371718309738 895 1 895 400960 239373120
102	8022147 5364 1063 1045395 3.525925749816 1329.376968911848 172 20 36 5344 167104
103	8027511 26562 1065 1049474 3.525925749816 1335.198590719464 859 28 84 64924 5121520
104	8054073 26562 1065 1049474 3.525925749816 1335.198590719464 859 28 84 64924 5121520
105	8080635 51409 1065 1049474 3.525925749816 1335.198590719464 1718 0 1 859 859
106	8132044 26565 1065 1049474 3.525925749816 1335.198590719464 859 28 84 64924 5121520
107	8158609 25780 1065 1049474 3.525925749816 1335.198590719464 859 0 0.000476738682 0.000752723911 3.0296933743691e-07
108	8184389 27224 1065 1049474 3.525925749816 1335.198590719464 859 51 107 84681 8562435
109	8211613 174207 1088 1049521 3.526274224158 1335.199067235545 5505 51 107 548943 55997281
110	8385820 46628 1088 1045526 3.526274224158 1329.378082255885 1498 28 84 95548 6599792
111	8432448 23702 1090 1045528 3.526274224158 1329.378082255885 760 20 36 24068 765488
112	8456150 24354 1090 1045528 3.526274224158 1329.378082255885 760 1 760 289180 146614260
113	8480504 191609 1098 1050088 3.52627440672 1336.198114171672 6026 51 107 602138 61528818
114	8672113 57722 1098 1044990 3.52627440672 1329.372429625291 1855 28 84 124636 9013008
115	8729835 24004 1100 1044992 3.52627440672 1329.372429625291 770 20 36 24256 768928
116	8753839 24666 1100 1044992 3.52627440672 1329.372429625291 770 1 770 296835 152474245
117	8778505 150530 1108 1049927 3.526274456655 1336.196684102169 4727 51 107 470721 47989351
118	8929035 47963 1108 1044985 3.526274456655 1329.37242955634 1559 28 84 104960 7620384
119	8976998 19299 1110 1044987 3.526274456655 1329.37242955634 618 20 36 19436 614608
120	8996297 19809 1110 1044987 3.526274456655 1329.37242955634 618 1 618 191271 78867409
121	9016106 50466 1113 1049519 3.526274481816 1335.199067151347 1590 51 107 153466 15273334
122	9066572 11970 1113 1045299 3.526274481816 1329.376088809736 384 28 84 18996 963440
123	9078542 10674 1115 1045301 3.526274481816 1329.376088809736 342 20 36 10868 346448
124	9089216 10908 1115 1045301 3.526274481816 1329.376088809736 342 1 342 58653 13392435
125	9100124 218605 1118 1050073 3.526274488763 1336.198113808627 6880 51 107 684228 69623848
126	9318729 57505 1118 1045135 3.526274488763 1329.372858967734 1842 28 84 113844 7610608
127	9376234 33172 1120 1045137 3.526274488763 1329.372858967734 1063 20 36 33588 1066544
128	9409406 34191 1120 1045137 3.526274488763 1329.372858967734 1063 1 1063 565516 400950844
129	9443597 6361 1135 1044936 3.527762161789 1329.372383495243 204 20 36 6312 196544
130	9449958 28042 1137 1044938 3.527762161789 1329.372383495243 897 28 84 66980 5238544
131	9478000 28042 1137 1044938 3.527762161789 1329.372383495243 897 28 84 66980 5238544
132	9506042 54290 1137 1044938 3.527762161789 1329.372383495243 1794 0 3 903 913
133	9560332 28042 1137 1044938 3.527762161789 1329.372383495243 897 28 84 66980 5238544
134	9588374 27236 1137 1044938 3.527762161789 1329.372383495243 897 0 0.095869312338 0.09906025595 0.0091942112917026
135	9615610 28706 1137 1044938 3.527762161789 1329.372383495243 897 51 107 87611 8794137
136	9644316 106795 1165 1049531 3.528110418421 1335.19906738491 3387 51 107 333817 33751907
137	9751111 26679 1165 1045521 3.528110418421 1329.378082135499 862 28 84 49808 3113312
138	9777790 17819 1167 1045523 3.528110418421 1329.378082135499 574 20 36 18224 580480
139	9795609 18285 1167 1045523 3.528110418421 1329.378082135499 574 1 574 165025 63204575
140	9813894 101597 1170 1050084 3.528110527982 1336.19811414513 3194 51 107 318122 32424258
141	9915491 56183 1170 1049979 3.528110527982 1336.197160790393 1810 28 84 132460 10226640
142	9971674 14508 1172 1044820 3.528110527982 1329.37171778507 464 20 36 14540 457552
143	9986182 14864 1172 1044820 3.528110527982 1329.37171778507 464 1 464 107880 33406840
144	10001046 5579 1174 1044141 3.528110527982 1329.36751137054 178 20 36 5300 160080
145	10006625 950 1175 1029513 3.528110527982 1321.034456627351 31 28 28 868 24304
146	10007575 46044 1176 1049983 3.528110527982 1336.197160790393 1485 28 84 116408 9414592
[...]
136	19055069 33949 1050186 1357811 1336.199067374985 1690.525342738571 1013 51 107 93923 9062469
137	19089018 10432 1062042 1357811 1354.521329752776 1690.525342738571 317 28 84 16124 857680
138	19099450 8753 1062044 1357813 1354.521329752776 1690.525342738571 266 20 36 8424 267712
139	19108203 9019 1062044 1357813 1354.521329752776 1690.525342738571 266 575 840 188195 134716365
140	19117222 34906 1050631 1365946 1337.197160790249 1703.196936591821 1039 51 107 100293 9989015
141	19152128 19434 1050631 1365946 1337.197160790249 1703.196936591821 591 28 84 40804 3019920
142	19171562 6937 1062303 1357717 1354.524048718199 1690.525024999509 211 20 36 6624 208800
143	19178499 7148 1062303 1357717 1354.524048718199 1690.525024999509 211 465 675 120270 69336710
144	19185647 2533 1062305 1357719 1354.524048718199 1690.525024999509 77 20 36 2324 70992
145	19188180 396 1086739 1242322 1392.526890153859 1583.022260570749 12 28 28 336 9408
146	19188576 14309 1050635 1365948 1337.197160790249 1703.196936591821 435 28 84 33208 2639264
147	19202885 14309 1050635 1365948 1337.197160790249 1703.196936591821 435 28 84 33208 2639264
148	19217194 27748 1050635 1365948 1337.197160790249 1703.196936591821 870 0 4 447 475
149	19244942 14309 1050635 1365948 1337.197160790249 1703.196936591821 435 28 84 33208 2639264
150	19259251 13991 1050635 1365948 1337.197160790249 1703.196936591821 435 0 0.099523188765 0.188069978187 0.016753010557669
151	19273242 14654 1050635 1365948 1337.197160790249 1703.196936591821 435 51 107 43213 4396947
152	19287896 45062 1050642 1365984 1337.197160854718 1703.197188836706 1340 51 107 129804 12954892
153	19332958 9268 1062310 1365940 1354.524048799997 1703.196936376564 282 28 84 13924 712784
154	19342226 7916 1062312 1357707 1354.524048799997 1690.525024738052 241 20 36 7600 241088
155	19350142 8157 1062312 1357707 1354.524048799997 1690.525024738052 241 374 614 119054 59979116
156	19358299 2894 1062441 1358083 1354.525315379178 1690.532079301049 88 20 44 2772 88176
157	19361193 10624 1062443 1365846 1354.525315379178 1703.196207094769 323 28 84 23772 1834256
158	19371817 10624 1062443 1365846 1354.525315379178 1703.196207094769 323 28 84 23772 1834256
159	19382441 20602 1062443 1365846 1354.525315379178 1703.196207094769 646 0 5 349 419
160	19403043 10624 1062443 1365846 1354.525315379178 1703.196207094769 323 28 84 23772 1834256
161	19413667 10464 1062443 1365846 1354.525315379178 1703.196207094769 323 0 0.1 0.695297386016 0.06845423952738
162	19424131 10849 1062443 1365846 1354.525315379178 1703.196207094769 323 51 107 31201 3098635
163	19434980 132 1159561 1260117 1488.525909229242 1590.534279747812 4 28 28 112 3136
164	19435112 39927 1050588 1365988 1337.196684231632 1703.197188945122 1190 51 107 112954 11105926
165	19475039 12140 1062466 1335128 1354.525663730322 1653.526007917357 369 28 84 20512 1237920
166	19487179 54980 1050232 1365842 1336.199544097097 1703.196206993174 1636 51 107 158124 15754948
167	19542159 15890 1050534 1358023 1337.196207416108 1690.527395916257 483 28 84 27528 1685728
168	19558049 1707 1062012 1357665 1354.520981429258 1690.524994023473 52 28 32 1640 51808
169	19559756 4375 1062014 1357667 1354.520981429258 1690.524994023473 133 28 84 9092 665840
170	19564131 4375 1062014 1357667 1354.520981429258 1690.524994023473 133 28 84 9092 665840
171	19568506 8484 1062014 1357667 1354.520981429258 1690.524994023473 266 0 1 133 133
172	19576990 4375 1062014 1357667 1354.520981429258 1690.524994023473 133 28 84 9092 665840
173	19581365 4251 1062014 1357667 1354.520981429258 1690.524994023473 133 0 5.3723e-08 5.3723e-08 2.886160729e-15
174	19585616 4449 1062014 1357667 1354.520981429258 1690.524994023473 133 51 107 12151 1154429
175	19590065 2237 1062381 1357489 1354.52490274629 1690.524162566379 68 20 36 2128 66912
176	19592302 4048 1062383 1357491 1354.52490274629 1690.524162566379 123 28 84 7828 535952
177	19596350 4048 1062383 1357491 1354.52490274629 1690.524162566379 123 28 84 7828 535952
178	19600398 7850 1062383 1357491 1354.52490274629 1690.524162566379 246 0 3 129 139
179	19608248 4048 1062383 1357491 1354.52490274629 1690.524162566379 123 28 84 7828 535952
180	19612296 3999 1062383 1357491 1354.52490274629 1690.524162566379 123 0 0.001430341891 0.003213562307 3.2935187835644e-06
181	19616295 4098 1062383 1357491 1354.52490274629 1690.524162566379 123 51 107 10657 961107
182	19620393 26042 1050638 1365447 1337.19716081307 1702.198113711947 770 51 107 80522 8491066
183	19646435 23500 1050186 1333619 1336.199067374985 1652.197636983673 696 51 107 70508 7295392
184	19669935 31230 1050579 1365547 1337.19668409016 1702.199067317153 923 51 107 96401 10168627
185	19701165 35788 1050642 1365984 1337.197160854718 1703.197188836706 1058 51 107 109394 11452426
186	19736953 57977 1050625 1365992 1337.197160574771 1703.197189407178 1725 51 107 167295 16713077
187	19794930 22514 1062281 1365992 1354.52404841263 1703.197189407178 685 28 84 44176 3082944
188	19817444 10972 1062283 1357843 1354.52404841263 1690.525357757237 334 20 36 10532 333648
189	19828416 11306 1062283 1357843 1354.52404841263 1690.525357757237 334 489 822 218937 146618151
190	19839722 36178 1050142 1358033 1336.198590886982 1690.527396229995 1076 51 107 103756 10334484
191	19875900 12141 1062296 1358033 1354.524048636405 1690.527396229995 369 28 84 22512 1497184
192	19888041 6741 1062298 1358035 1354.524048636405 1690.527396229995 205 20 36 6484 205616
193	19894782 7130 1062298 1358035 1354.524048636405 1690.527396229995 205 979 1183 221605 240272915
194	19901912 11380 1061328 1358025 1353.299639193246 1690.527395916257 346 20 44 10892 345680
195	19913292 11916 1061328 1358025 1353.299639193246 1690.527395916257 346 844 1189 351709 360963981
196	19925208 8325 1062468 1335130 1354.525663730322 1653.526007917357 253 20 36 7948 251184
197	19933533 8578 1062468 1335130 1354.525663730322 1653.526007917357 253 452 704 146234 85872754
198	19942111 1543 1122782 1335288 1444.005797265642 1653.526548292414 47 20 44 1480 46976
199	19943654 3288 1122784 1335290 1444.005797265642 1653.526548292414 100 28 84 6556 462832
200	19946942 3288 1122784 1335290 1444.005797265642 1653.526548292414 100 28 84 6556 462832
201	19950230 6376 1122784 1335290 1444.005797265642 1653.526548292414 200 0 2 102 104
202	19956606 3288 1122784 1335290 1444.005797265642 1653.526548292414 100 28 84 6556 462832
203	19959894 3246 1122784 1335290 1444.005797265642 1653.526548292414 100 0 0.099887341608 0.101029420848 0.0099782464885258
204	19963140 3335 1122784 1335290 1444.005797265642 1653.526548292414 100 51 107 8856 817308
205	19966475 1678 1062256 1357641 1354.523700142595 1690.524758546449 51 28 36 1612 51056
206	19968153 6085 1050583 1357643 1337.196684119424 1690.524758546449 185 28 84 13440 1031264
207	19974238 6085 1050583 1357643 1337.196684119424 1690.524758546449 185 28 84 13440 1031264
208	19980323 11801 1050583 1357643 1337.196684119424 1690.524758546449 370 0 1 185 185
209	19992124 6086 1050583 1357643 1337.196684119424 1690.524758546449 185 28 84 13440 1031264
210	19998210 5914 1050583 1357643 1337.196684119424 1690.524758546449 185 0 0.092716729761 0.092716729761 0.0085963919775743
211	20004124 6212 1050583 1357643 1337.196684119424 1690.524758546449 185 51 107 17695 1747369
212	20010336 2231 1061227 1357360 1353.298973907769 1690.522029725976 68 20 36 2148 68144
213	20012567 5885 1050536 1357362 1337.196207416108 1690.522029725976 179 28 84 12496 926848
214	20018452 5885 1050536 1357362 1337.196207416108 1690.522029725976 179 28 84 12496 926848
215	20024337 11412 1050536 1357362 1337.196207416108 1690.522029725976 358 0 1 179 179
216	20035749 5885 1050536 1357362 1337.196207416108 1690.522029725976 179 28 84 12496 926848
217	20041634 5715 1050536 1357362 1337.196207416108 1690.522029725976 179 0 1.0757e-08 1.0757e-08 1.15713049e-16
218	20047349 5990 1050536 1357362 1337.196207416108 1690.522029725976 179 51 107 16613 1596355
219	20053339 1974 1086954 1313026 1392.527931744347 1625.481262085546 60 20 36 1868 58576
220	20055313 4737 1086956 1313028 1392.527931744347 1625.481262085546 144 28 84 9676 699824
221	20060050 4737 1086956 1313028 1392.527931744347 1625.481262085546 144 28 84 9676 699824
222	20064787 9186 1086956 1313028 1392.527931744347 1625.481262085546 288 0 4 168 232
223	20073973 4737 1086956 1313028 1392.527931744347 1625.481262085546 144 28 84 9676 699824
224	20078710 4663 1086956 1313028 1392.527931744347 1625.481262085546 144 0 0.4 1.68303517792 0.53932354609886
225	20083373 4813 1086956 1313028 1392.527931744347 1625.481262085546 144 51 107 12988 1221096
226	20088186 1479 1123003 1313248 1444.006774531374 1625.482365387835 45 20 32 1392 43392
227	20089665 1940 1123005 1313250 1444.006774531374 1625.482365387835 59 28 84 3020 165680
228	20091605 1940 1123005 1313250 1444.006774531374 1625.482365387835 59 28 84 3020 165680
229	20093545 3762 1123005 1313250 1444.006774531374 1625.482365387835 118 0 2 61 63
230	20097307 1940 1123005 1313250 1444.006774531374 1625.482365387835 59 28 84 3020 165680
231	20099247 1907 1123005 1313250 1444.006774531374 1625.482365387835 59 0 0.060746140921 0.115549389769 0.0066934897210898
232	20101154 1946 1123005 1313250 1444.006774531374 1625.482365387835 59 51 107 4377 335811
233	20103100 1747 1087002 1334920 1392.528189549391 1653.524784592142 53 28 32 1660 52112
234	20104847 2535 1087004 1334922 1392.528189549391 1653.524784592142 77 28 84 4136 243296
235	20107382 2535 1087004 1334922 1392.528189549391 1653.524784592142 77 28 84 4136 243296
236	20109917 4915 1087004 1334922 1392.528189549391 1653.524784592142 154 0 1 77 77
237	20114832 2534 1087004 1334922 1392.528189549391 1653.524784592142 77 28 84 4136 243296
238	20117366 2470 1087004 1334922 1392.528189549391 1653.524784592142 77 0 0.097472660077 0.097472660077 0.0095009194624864
239	20119836 2548 1087004 1334922 1392.528189549391 1653.524784592142 77 51 107 5907 474285
240	20122384 1580 1086624 1334847 1392.526541489494 1653.522999087945 48 28 32 1492 46512
241	20123964 6190 1086626 1334849 1392.526541489494 1653.522999087945 188 28 84 13708 1056784
242	20130154 6190 1086626 1334849 1392.526541489494 1653.522999087945 188 28 84 13708 1056784
243	20136344 12002 1086626 1334849 1392.526541489494 1653.522999087945 376 0 1 188 188
244	20148346 6188 1086626 1334849 1392.526541489494 1653.522999087945 188 28 84 13708 1056784
245	20154534 6023 1086626 1334849 1392.526541489494 1653.522999087945 188 0 0.000332822212 0.000333057594 1.1077068020526e-07
246	20160557 6319 1086626 1334849 1392.526541489494 1653.522999087945 188 51 107 18032 1786804
247	20166876 43798 1050681 1365986 1337.197637358598 1703.19718889224 1302 51 107 126426 12650774
248	20210674 9084 1086729 1365937 1392.526890103644 1703.196936320161 276 28 84 13808 726784
249	20219758 7371 1086731 1357697 1392.526890103644 1690.525024671657 224 20 44 7068 224368
250	20227129 7595 1086731 1357697 1392.526890103644 1690.525024671657 224 672 895 175504 138443984
251	20234724 59205 1050135 1358028 1336.198590822299 1690.527396179569 1763 51 107 169649 16847275
252	20293929 22497 1050179 1358028 1336.199067347294 1690.527396179569 684 28 84 42364 2840464
253	20316426 12761 1061264 1358030 1353.299338550508 1690.527396179569 388 20 44 12200 386368
254	20329187 13537 1061264 1358030 1353.299338550508 1690.527396179569 388 1020 1407 470838 576229470
255	20342724 30855 1050139 1365990 1336.198590860144 1703.197189258518 921 51 107 85571 8265265
256	20373579 12100 1086724 1357585 1392.52689003779 1690.524558720745 368 28 84 21016 1299520
257	20385679 8184 1086726 1357587 1392.52689003779 1690.524558720745 249 20 36 7832 247680
258	20393863 8433 1086726 1357587 1392.52689003779 1690.524558720745 249 652 900 193224 151228324
259	20402296 2501 1087116 1357861 1392.52979439208 1690.526610360154 76 20 32 2284 69136
260	20404797 13090 1087118 1365994 1392.52979439208 1703.197189407178 398 28 84 29956 2362576
261	20417887 13090 1087118 1365994 1392.52979439208 1703.197189407178 398 28 84 29956 2362576
262	20430977 25383 1087118 1365994 1392.52979439208 1703.197189407178 796 0 4 410 438
263	20456360 13089 1087118 1365994 1392.52979439208 1703.197189407178 398 28 84 29956 2362576
264	20469449 12769 1087118 1365994 1392.52979439208 1703.197189407178 398 0 0.001619153345 0.004425160919 4.701692927935e-06
265	20482218 13395 1087118 1365994 1392.52979439208 1703.197189407178 398 51 107 39110 3951094
266	20495613 1642 1127374 1333665 1445.525732903376 1652.30037204404 50 28 36 1544 47872
267	20497255 4801 1127376 1333667 1445.525732903376 1652.30037204404 146 28 84 10084 749040
268	20502056 4801 1127376 1333667 1445.525732903376 1652.30037204404 146 28 84 10084 749040
269	20506857 9310 1127376 1333667 1445.525732903376 1652.30037204404 292 0 2 150 154
270	20516167 4801 1127376 1333667 1445.525732903376 1652.30037204404 146 28 84 10084 749040
271	20520968 4720 1127376 1333667 1445.525732903376 1652.30037204404 146 0 0.098939329607 0.285699585837 0.026963956585647
272	20525688 4888 1127376 1333667 1445.525732903376 1652.30037204404 146 51 107 13442 1290138
273	20530576 1579 1123096 1312973 1444.007114065746 1625.479740946647 48 20 36 1488 46400
274	20532155 2173 1123098 1313704 1444.007114065746 1625.488468635338 66 28 84 3756 228560
275	20534328 2173 1123098 1313704 1444.007114065746 1625.488468635338 66 28 84 3756 228560
276	20536501 4214 1123098 1313704 1444.007114065746 1625.488468635338 132 0 2 68 70
277	20540715 2173 1123098 1313704 1444.007114065746 1625.488468635338 66 28 84 3756 228560
278	20542888 2163 1123098 1313704 1444.007114065746 1625.488468635338 66 0 0.099524056026 0.199048524077 0.019810044667722
279	20545051 2187 1123098 1313704 1444.007114065746 1625.488468635338 66 51 107 5274 436250
280	20547238 2629 1061266 1357513 1353.299338550508 1690.524210112149 80 20 36 2468 76784
281	20549867 11378 1050181 1357515 1336.199067347294 1690.524210112149 346 28 84 25612 1993360
282	20561245 11378 1050181 1357515 1336.199067347294 1690.524210112149 346 28 84 25612 1993360
283	20572623 22064 1050181 1357515 1336.199067347294 1690.524210112149 692 0 3 354 366
284	20594687 11378 1050181 1357515 1336.199067347294 1690.524210112149 346 28 84 25612 1993360
285	20606065 11097 1050181 1357515 1336.199067347294 1690.524210112149 346 0 0.093731308588 0.281880993116 0.026356896155742
286	20617162 11629 1050181 1357515 1336.199067347294 1690.524210112149 346 51 107 33570 3354546
287	20628791 19593 1050124 1333579 1336.198590612917 1652.19716071673 580 51 107 59428 6194324
288	20648384 28826 1050225 1333584 1336.199543984584 1652.197160849059 852 51 107 88372 9278852
289	20677210 27711 1050588 1365988 1337.196684231632 1703.197188945122 821 51 107 83955 8729253
290	20704921 38985 1050232 1365842 1336.199544097097 1703.196206993174 1153 51 107 119487 12547425
291	20743906 297 1159733 1303600 1488.527986005079 1620.603961127142 9 28 28 252 7056
292	20744203 197 1223315 1252328 1567.015198885478 1589.16096733942 6 28 28 168 4704
293	20744400 35704 1050184 1365886 1336.199067357904 1703.196683725236 1056 51 107 109660 11528408
294	20780104 25916 1050126 1333577 1336.19859065644 1652.197160696231 767 51 107 78845 8238871
295	20806020 29823 1050137 1333521 1336.198590844457 1652.196683893118 882 51 107 91338 9584490
296	20835843 15127 1050736 1365460 1337.19811413189 1702.198114203702 448 51 107 45896 4779472
297	20850970 165 1252433 1273067 1589.161696593827 1594.197968937183 5 28 28 140 3920
298	20851135 65 1202390 1205019 1545.64592904826 1546.645929041866 2 28 28 56 1568
299	20851200 33638 1050133 1365893 1336.198590760563 1703.196683838799 994 51 107 103622 10913458
300	20884838 13631 1050532 1365840 1337.19620733314 1703.196206919399 403 51 107 42057 4435755
301	20898469 36855 1050577 1333617 1337.196684039806 1652.197636807808 1091 51 107 112037 11695699
302	20935324 327 1062638 1285350 1354.528728522578 1605.01963403296 10 28 28 280 7840
303	20935651 264 1062831 1285390 1354.534507614808 1605.019886837453 8 28 28 224 6272
304	20935915 99 1122879 1278774 1444.006397951096 1599.355768105572 3 28 28 84 2352
305	20936014 66 1123149 1124869 1444.007194456793 1445.007194456793 2 28 28 56 1568
306	20936080 11470 1050229 1365542 1336.199544007874 1702.199067158901 329 1333 1699 497036 754741414
307	20947550 14730 1050229 1365542 1336.199544007874 1702.199067158901 329 0.002860568072 6.38826344278 34.516623290431 104.47258165607
308	20962280 132 1122057 1357899 1443.525457886023 1690.526863104819 4 28 28 112 3136
309	20962412 99 1123955 1253985 1444.526790324697 1589.638530096745 3 28 28 84 2352
310	20962511 33 1365947 1365947 1703.196936591821 1703.196936591821 1 28 28 28 784
311	20962544 36457 1050135 1345844 1336.198590822299 1670.199067313803 1079 51 107 111553 11696231
312	20999001 23906 1050142 1333621 1336.198590886982 1652.197637177022 707 51 107 72757 7606547
313	21022907 35157 1050625 1365500 1337.197160574771 1702.198590770994 1040 51 107 107364 11235672
314	21058064 34700 1050681 1365986 1337.197637358598 1703.19718889224 1026 51 107 106270 11142818
315	21092764 230 1152182 1303662 1481.525444383897 1620.604213698871 7 28 28 196 5488
316	21092994 33 1152426 1152426 1481.527400202333 1481.527400202333 1 28 28 28 784
317	21093027 764 1063310 1358547 1354.538906674193 1690.539582682761 23 80 117 2215 217111
319	21093791 162 1152469 1302750 1481.52765275549 1619.71668348708 5 28 28 140 3920
320	21093953 231 1238917 1303603 1582.021929119605 1620.603961241424 7 28 28 196 5488
321	21094184 230 1087283 1315287 1392.535598888505 1626.475386911642 7 28 28 196 5488
322	21094414 198 1057027 1273071 1347.195730692513 1594.197969245313 6 28 28 168 4704
323	21094612 66 1201292 1203523 1545.005631610031 1546.005631618191 2 28 28 56 1568
324	21094678 165 1203644 1315253 1546.009885866344 1626.475134551391 5 28 28 140 3920
325	21094843 66 1191799 1298796 1533.527535311306 1618.616509968766 2 28 28 56 1568
326	21094909 363 1122002 1365889 1443.525205424251 1703.196683776465 11 28 28 308 8624
327	21095272 165 1242467 1272539 1583.105950920403 1593.985351031248 5 28 28 140 3920
328	21095437 132 1159967 1224694 1488.533137187096 1569.022449451883 4 28 28 112 3136
329	21095569 33 1273628 1273628 1594.985351031248 1594.985351031248 1 48 48 48 2304
331	21095602 18668 1050139 1365990 1336.198590860144 1703.197189258518 553 51 107 56091 5804337
332	21114270 163 1109047 1244287 1424.531712889359 1584.10620354103 5 28 28 140 3920
333	21114433 165 1086832 1311145 1392.527142818226 1625.018260490643 5 28 28 140 3920
334	21114598 132 1223275 1301398 1567.014946056158 1619.603961100512 4 28 28 112 3136
335	21114730 33 1202552 1202552 1545.646191967147 1545.646191967147 1 28 28 28 784
336	21114763 66 1203201 1278716 1545.650658379059 1599.355515458067 2 28 28 56 1568
337	21114829 132 1062672 1191843 1354.528981184304 1533.527788136494 4 28 28 112 3136
338	21114961 99 1062796 1277696 1354.534254823223 1599.347309464007 3 28 28 84 2352
339	21115060 99 1057083 1203690 1347.195983377657 1546.010138530155 3 28 28 84 2352
340	21115159 99 1108756 1203811 1424.529669009343 1546.012810523481 3 28 28 84 2352
341	21115258 198 1223116 1302725 1567.009309143969 1619.716431142694 6 28 28 168 4704
342	21115456 33 1159788 1159788 1488.528238800334 1488.528238800334 1 28 28 28 784
343	21115489 99 1242365 1261394 1583.105222627975 1591.162931581966 3 28 28 84 2352
344	21115588 132 1222994 1298874 1567.003998400136 1618.616762583489 4 28 28 112 3136
345	21115720 64 1314356 1314423 1625.583517451997 1625.58399423254 2 9 10 19 181
346	21115784 197 1123229 1272608 1444.00744708199 1593.985603220767 6 28 28 168 4704
347	21115981 33 1273629 1273629 1594.985351426046 1594.985351426046 1 48 48 48 2304
348	21116014 165 1273630 1304531 1594.985351517469 1621.603961241424 5 48 84 348 25776
349	21116179 33 1273964 1273964 1595.197968937183 1595.197968937183 1 48 48 48 2304
350	21116212 33 1273967 1273967 1595.197969245313 1595.197969245313 1 48 48 48 2304

